AquaCrop 7.0 (August 2022) - Output created on (date) : 16-05-2023   at (time) : 15:17:41

    RunNr     Day1   Month1    Year1     Rain      ETo       GD     CO2      Irri   Infilt   Runoff    Drain   Upflow        E     E/Ex       Tr      TrW   Tr/Trx    SaltIn   SaltOut    SaltUp  SaltProf     Cycle   SaltStr  FertStr  WeedStr  TempStr   ExpStr   StoStr  BioMass  Brelative   HI    Y(dry)  Y(fresh)    WPet      Bin     Bout     DayN   MonthN    YearN
                                           mm       mm  degC.day    ppm        mm       mm       mm       mm       mm       mm        %       mm       mm        %    ton/ha    ton/ha    ton/ha    ton/ha      days       %        %        %        %        %        %    ton/ha        %       %    ton/ha   ton/ha    kg/m3   ton/ha   ton/ha
   Tot(1)       10        5     1981    314.3    464.0   1197.4   340.11      0.0    269.9     44.4     53.0      0.0    107.6       54    270.0    269.2      100     0.000     0.000     0.000     0.000      107        0        0        0       13        2        0    20.553       97     40.0    8.221   -9.900     2.18    0.000    0.000       30        8     1981  Maize_Short_Soroca_10May_Optimal_85_MOHC.PRM
   Tot(2)       10        5     1982    276.4    458.5   1155.8   341.22      0.0    240.9     35.5     39.2      0.0     94.7       46    252.2    251.7      100     0.000     0.000     0.000     0.000      107        0        0        0       13        2        0    20.428       96     40.0    8.171   -9.900     2.36    0.000    0.000       30        8     1982  Maize_Short_Soroca_10May_Optimal_85_MOHC.PRM
   Tot(3)       10        5     1983    220.9    450.3   1233.2   342.84      0.0    215.8      5.1      0.0      0.0     89.8       45    247.6    246.5      100     0.000     0.000     0.000     0.000      107        0        0        0        9        2        0    20.640       96     40.0    8.259   -9.900     2.45    0.000    0.000       30        8     1983  Maize_Short_Soroca_10May_Optimal_85_MOHC.PRM
   Tot(4)       10        5     1984    346.0    418.3   1030.6   344.40      0.0    323.8     22.2     30.1      0.0    140.7       86    231.5    231.8      100     0.000     0.000     0.000     0.000      107        0        0        0       20        0        0    19.059       98     40.0    7.623   -9.900     2.05    0.000    0.000       30        8     1984  Maize_Short_Soroca_10May_Optimal_85_MOHC.PRM
   Tot(5)       10        5     1985    364.9    460.3   1158.1   345.87      0.0    325.3     39.6     58.0      0.0    139.0       74    264.0    261.2      100     0.000     0.000     0.000     0.000      107        0        0        0       15        0        0    20.309       98     40.0    8.124   -9.900     2.02    0.000    0.000       30        8     1985  Maize_Short_Soroca_10May_Optimal_85_MOHC.PRM
   Tot(6)       10        5     1986    167.6    525.2   1243.1   347.19      0.0    167.2      0.4      0.0      0.0     99.7       42    263.7    266.3       93     0.000     0.000     0.000     0.000      107        0        0        0       11        7        5    18.365       87     40.0    7.347   -9.900     2.02    0.000    0.000       30        8     1986  Maize_Short_Soroca_10May_Optimal_85_MOHC.PRM
   Tot(7)       10        5     1987    259.9    468.9   1121.6   348.98      0.0    253.3      6.6      3.8      0.0    129.3       68    271.3    272.5      100     0.000     0.000     0.000     0.000      107        0        0        0       18        7        0    19.706       95     40.4    7.955   -9.900     1.99    0.000    0.000       30        8     1987  Maize_Short_Soroca_10May_Optimal_85_MOHC.PRM
   Tot(8)       10        5     1988    304.7    438.6   1233.5   351.45      0.0    289.8     14.9     33.2      0.0    136.1       85    285.2    283.8      100     0.000     0.000     0.000     0.000      107        0        0        0        9        1        0    21.784       97     40.0    8.716   -9.900     2.07    0.000    0.000       30        8     1988  Maize_Short_Soroca_10May_Optimal_85_MOHC.PRM
   Tot(9)       10        5     1989    291.8    465.2   1163.9   352.89      0.0    273.3     18.5     23.3      0.0    100.2       52    274.5    275.9      100     0.000     0.000     0.000     0.000      107        0        0        0       15        2        0    20.978       97     40.1    8.407   -9.900     2.24    0.000    0.000       30        8     1989  Maize_Short_Soroca_10May_Optimal_85_MOHC.PRM
  Tot(10)       10        5     1990    185.3    478.8   1107.1   354.16      0.0    183.6      1.7      3.5      0.0    119.8       62    265.3    264.9       94     0.000     0.000     0.000     0.000      107        0        0        0       18        3        5    19.626       90     40.0    7.855   -9.900     2.04    0.000    0.000       30        8     1990  Maize_Short_Soroca_10May_Optimal_85_MOHC.PRM
  Tot(11)       10        5     1991    435.0    413.3   1140.4   355.48      0.0    387.2     47.8     36.2      0.0    125.7       81    268.1    268.4      100     0.000     0.000     0.000     0.000      107        0        0        0       19        0        0    22.146       98     40.0    8.861   -9.900     2.25    0.000    0.000       30        8     1991  Maize_Short_Soroca_10May_Optimal_85_MOHC.PRM
  Tot(12)       10        5     1992    182.9    517.7   1235.3   356.27      0.0    180.8      2.1      5.4      0.0    136.5       71    263.6    264.4       81     0.000     0.000     0.000     0.000      107        0        0        0       14        5       14    17.257       75     39.6    6.837   -9.900     1.71    0.000    0.000       30        8     1992  Maize_Short_Soroca_10May_Optimal_85_MOHC.PRM
  Tot(13)       10        5     1993    238.3    470.2   1121.3   356.95      0.0    231.9      6.4     12.8      0.0    126.3       65    263.2    262.8       99     0.000     0.000     0.000     0.000      107        0        0        0       15        1        0    19.838       97     40.0    7.938   -9.900     2.04    0.000    0.000       30        8     1993  Maize_Short_Soroca_10May_Optimal_85_MOHC.PRM
  Tot(14)       10        5     1994    259.0    518.1   1218.9   358.63      0.0    228.7     30.3     14.2      0.0    122.5       55    244.7    244.5       83     0.000     0.000     0.000     0.000      107        0        0        0       13        8       12    16.042       72     39.6    6.355   -9.900     1.73    0.000    0.000       30        8     1994  Maize_Short_Soroca_10May_Optimal_85_MOHC.PRM
  Tot(15)       10        5     1995    341.0    494.9   1277.8   360.62      0.0    307.5     33.5     13.3      0.0    111.6       54    304.2    305.3      100     0.000     0.000     0.000     0.000      107        0        0        0        7        3        0    22.177       96     40.1    8.891   -9.900     2.14    0.000    0.000       30        8     1995  Maize_Short_Soroca_10May_Optimal_85_MOHC.PRM
  Tot(16)       10        5     1996    285.8    499.8   1240.2   362.37      0.0    263.8     22.0     10.7      0.0     96.6       42    273.3    270.3      100     0.000     0.000     0.000     0.000      107        0        0        0       11        3        0    20.786       95     40.0    8.314   -9.900     2.25    0.000    0.000       30        8     1996  Maize_Short_Soroca_10May_Optimal_85_MOHC.PRM
  Tot(17)       10        5     1997    317.0    446.1   1164.4   363.47      0.0    301.4     15.6      0.0      0.0    104.6       53    255.2    257.5      100     0.000     0.000     0.000     0.000      107        0        0        0       14        1        0    21.697       97     40.0    8.679   -9.900     2.41    0.000    0.000       30        8     1997  Maize_Short_Soroca_10May_Optimal_85_MOHC.PRM
  Tot(18)       10        5     1998    320.2    440.0   1196.3   366.50      0.0    298.9     21.3      7.0      0.0    127.0       73    268.6    268.7      100     0.000     0.000     0.000     0.000      107        0        0        0       16        1        0    20.932       97     40.0    8.373   -9.900     2.12    0.000    0.000       30        8     1998  Maize_Short_Soroca_10May_Optimal_85_MOHC.PRM
  Tot(19)       10        5     1999    153.6    513.3   1335.1   368.14      0.0    153.6      0.0      0.0      0.0     95.8       41    266.1    265.9       90     0.000     0.000     0.000     0.000      107        0        0        0        7       13        8    18.930       81     40.3    7.633   -9.900     2.11    0.000    0.000       30        8     1999  Maize_Short_Soroca_10May_Optimal_85_MOHC.PRM
  Tot(20)       10        5     2000    240.5    518.4   1236.8   369.41      0.0    230.5     10.0      0.0      0.0     93.1       40    288.7    288.4      100     0.000     0.000     0.000     0.000      107        0        0        0       11        4        0    20.915       95     40.0    8.368   -9.900     2.19    0.000    0.000       30        8     2000  Maize_Short_Soroca_10May_Optimal_85_MOHC.PRM
  Tot(21)       10        5     2001    261.8    486.9   1221.2   371.07      0.0    252.4      9.4     21.1      0.0    122.2       68    305.0    305.9       96     0.000     0.000     0.000     0.000      107        0        0        0       15        0        3    21.456       94     40.0    8.574   -9.900     2.01    0.000    0.000       30        8     2001  Maize_Short_Soroca_10May_Optimal_85_MOHC.PRM
  Tot(22)       10        5     2002    365.2    508.0   1322.2   373.16      0.0    331.2     34.0      0.0      0.0    133.6       61    305.1    302.8       99     0.000     0.000     0.000     0.000      107        0        0        0        9       17        0    21.518       92     40.7    8.759   -9.900     2.00    0.000    0.000       30        8     2002  Maize_Short_Soroca_10May_Optimal_85_MOHC.PRM
  Tot(23)       10        5     2003    330.5    556.9   1324.9   375.80      0.0    274.7     55.8     10.1      0.0     90.6       32    287.7    285.8      100     0.000     0.000     0.000     0.000      107        0        0        0        7        8        0    20.973       91     40.0    8.389   -9.900     2.22    0.000    0.000       30        8     2003  Maize_Short_Soroca_10May_Optimal_85_MOHC.PRM
  Tot(24)       10        5     2004    237.8    487.6   1126.2   377.49      0.0    216.4     21.4      0.0      0.0     72.5       31    265.1    267.1      100     0.000     0.000     0.000     0.000      107        0        0        0       16       12        0    20.430       90     40.0    8.172   -9.900     2.42    0.000    0.000       30        8     2004  Maize_Short_Soroca_10May_Optimal_85_MOHC.PRM
  Tot(25)       10        5     2005    211.8    473.0   1222.1   379.80      0.0    210.1      1.7      0.0      0.0    104.9       53    283.0    283.3      100     0.000     0.000     0.000     0.000      107        0        0        0        9        4        0    22.102       96     40.1    8.857   -9.900     2.28    0.000    0.000       30        8     2005  Maize_Short_Soroca_10May_Optimal_85_MOHC.PRM
  Tot(26)       10        5     2006    319.1    493.0   1210.2   381.90      0.0    302.9     16.2     24.4      0.0    139.5       76    303.0    304.6       96     0.000     0.000     0.000     0.000      107        0        0        0       15        5        3    21.169       92     40.2    8.503   -9.900     1.92    0.000    0.000       30        8     2006  Maize_Short_Soroca_10May_Optimal_85_MOHC.PRM
  Tot(27)       10        5     2007    149.8    609.2   1455.8   383.77      0.0    149.8      0.0      0.0      0.0    113.2       34    240.0    239.9       82     0.000     0.000     0.000     0.000      107        0        0        0        2       23       12    15.179       64     40.1    6.086   -9.900     1.72    0.000    0.000       30        8     2007  Maize_Short_Soroca_10May_Optimal_85_MOHC.PRM
  Tot(28)       10        5     2008    339.2    532.4   1279.2   385.59      0.0    279.2     60.0      0.0      0.0    111.9       50    324.0    323.8       99     0.000     0.000     0.000     0.000      107        0        0        0        7       14        0    21.833       92     40.4    8.826   -9.900     2.02    0.000    0.000       30        8     2008  Maize_Short_Soroca_10May_Optimal_85_MOHC.PRM
  Tot(29)       10        5     2009    217.5    553.8   1302.8   387.37      0.0    216.2      1.3      0.0      0.0    138.6       60    294.9    295.3       88     0.000     0.000     0.000     0.000      107        0        0        0        8        5       11    19.164       81     39.8    7.624   -9.900     1.76    0.000    0.000       30        8     2009  Maize_Short_Soroca_10May_Optimal_85_MOHC.PRM
  Tot(30)       10        5     2010    343.4    488.6   1373.5   389.85      0.0    313.0     30.4     53.9      0.0    134.0       73    312.3    312.3       99     0.000     0.000     0.000     0.000      107        0        0        0        8        0        1    22.696       97     40.0    9.077   -9.900     2.03    0.000    0.000       30        8     2010  Maize_Short_Soroca_10May_Optimal_85_MOHC.PRM
  Tot(31)       10        5     2011    183.0    549.1   1314.7   391.63      0.0    180.6      2.4      0.0      0.0     97.0       38    288.6    287.8       95     0.000     0.000     0.000     0.000      107        0        0        0        6        5        3    20.476       89     40.0    8.197   -9.900     2.13    0.000    0.000       30        8     2011  Maize_Short_Soroca_10May_Optimal_85_MOHC.PRM
  Tot(32)       10        5     2012    140.2    605.5   1390.8   393.82      0.0    140.1      0.1      0.0      0.0    124.9       39    222.3    223.5       78     0.000     0.000     0.000     0.000      107        0        0        0        7       27       16    13.088       56     40.0    5.242   -9.900     1.51    0.000    0.000       30        8     2012  Maize_Short_Soroca_10May_Optimal_85_MOHC.PRM
  Tot(33)       10        5     2013    253.3    513.3   1335.9   396.48      0.0    241.6     11.7     11.7      0.0    152.0       73    266.2    265.8       85     0.000     0.000     0.000     0.000      107        0        0        0        6        4       11    18.930       80     39.5    7.469   -9.900     1.79    0.000    0.000       30        8     2013  Maize_Short_Soroca_10May_Optimal_85_MOHC.PRM
  Tot(34)       10        5     2014    311.3    502.2   1300.0   398.55      0.0    281.0     30.3     24.6      0.0    119.1       60    309.9    308.3      100     0.000     0.000     0.000     0.000      107        0        0        0        8        5        0    22.102       96     40.0    8.846   -9.900     2.06    0.000    0.000       30        8     2014  Maize_Short_Soroca_10May_Optimal_85_MOHC.PRM
  Tot(35)       10        5     2015     51.2    618.6   1358.4   402.00      0.0     51.2      0.0      0.0      0.0     79.9       22    185.8    188.3       77     0.000     0.000     0.000     0.000       97        0        0        0        7       27       19    11.038       47     33.9    3.738   -9.900     1.42    0.000    0.000       30        8     2015  Maize_Short_Soroca_10May_Optimal_85_MOHC.PRM
  Tot(36)       10        5     2016    256.1    529.1   1317.7   404.00      0.0    252.7      3.4      2.8      0.0    148.2       78    311.7    310.4       90     0.000     0.000     0.000     0.000      107        0        0        0       10        4        8    20.294       85     40.1    8.143   -9.900     1.77    0.000    0.000       30        8     2016  Maize_Short_Soroca_10May_Optimal_85_MOHC.PRM
  Tot(37)       10        5     2017    197.0    556.9   1284.6   407.00      0.0    196.3      0.7      0.0      0.0    125.8       54    283.6    284.6       86     0.000     0.000     0.000     0.000      107        0        0        0        9        8       11    18.761       79     39.9    7.478   -9.900     1.83    0.000    0.000       30        8     2017  Maize_Short_Soroca_10May_Optimal_85_MOHC.PRM
  Tot(38)       10        5     2018    244.0    523.1   1397.7   410.00      0.0    232.1     11.9      0.0      0.0     96.2       40    297.0    294.2      100     0.000     0.000     0.000     0.000      107        0        0        0        5        4        0    22.348       94     40.0    8.940   -9.900     2.27    0.000    0.000       30        8     2018  Maize_Short_Soroca_10May_Optimal_85_MOHC.PRM
  Tot(39)       10        5     2019    275.8    539.8   1395.6   413.00      0.0    252.7     23.1     34.5      0.0    155.4       74    284.8    287.2       86     0.000     0.000     0.000     0.000      107        0        0        0        4        5       11    19.479       82     39.7    7.732   -9.900     1.76    0.000    0.000       30        8     2019  Maize_Short_Soroca_10May_Optimal_85_MOHC.PRM
  Tot(40)       10        5     2020    187.9    603.9   1437.7   416.00      0.0    181.1      6.8     11.0      0.0    120.3       54    276.9    277.5       77     0.000     0.000     0.000     0.000      107        0        0        0        6        6       19    16.580       69     38.5    6.386   -9.900     1.61    0.000    0.000       30        8     2020  Maize_Short_Soroca_10May_Optimal_85_MOHC.PRM
  Tot(41)       10        5     2021     93.0    708.3   1508.6   419.00      0.0     90.5      2.5      4.8      0.0    110.1       24    178.9    179.0       74     0.000     0.000     0.000     0.000       91        0        0        0        5       33       20     9.055       37     27.8    2.522   -9.900     0.91    0.000    0.000       30        8     2021  Maize_Short_Soroca_10May_Optimal_85_MOHC.PRM
  Tot(42)       10        5     2022     71.3    610.0   1387.7   422.00      0.0     71.3      0.0      0.0      0.0     88.4       28    201.5    201.5       73     0.000     0.000     0.000     0.000       98        0        0        0       12       23       21    11.887       49     34.0    4.043   -9.900     1.40    0.000    0.000       30        8     2022  Maize_Short_Soroca_10May_Optimal_85_MOHC.PRM
  Tot(43)       10        5     2023    148.8    631.7   1428.5   425.00      0.0    148.5      0.3      0.0      0.0    128.7       39    203.1    203.1       73     0.000     0.000     0.000     0.000       95        0        0        0        8       20       21    11.536       48     31.4    3.620   -9.900     1.12    0.000    0.000       30        8     2023  Maize_Short_Soroca_10May_Optimal_85_MOHC.PRM
  Tot(44)       10        5     2024     56.9    631.6   1488.9   428.00      0.0     56.9      0.0      0.4      0.0     87.9       24    174.7    174.7       74     0.000     0.000     0.000     0.000       90        0        0        0        6       28       20    10.158       41     26.7    2.708   -9.900     1.04    0.000    0.000       30        8     2024  Maize_Short_Soroca_10May_Optimal_85_MOHC.PRM
  Tot(45)       10        5     2025    228.5    557.3   1401.6   431.00      0.0    215.8     12.7     13.7      0.0    136.5       64    263.4    262.2       78     0.000     0.000     0.000     0.000      107        0        0        0        6       10       14    17.171       72     27.6    4.737   -9.900     1.18    0.000    0.000       30        8     2025  Maize_Short_Soroca_10May_Optimal_85_MOHC.PRM
  Tot(46)       10        5     2026    125.4    659.8   1503.9   435.00      0.0    124.2      1.2      0.0      0.0    117.4       36    226.7    227.8       70     0.000     0.000     0.000     0.000      101        0        0        0        4       19       23    12.617       51     36.5    4.606   -9.900     1.35    0.000    0.000       30        8     2026  Maize_Short_Soroca_10May_Optimal_85_MOHC.PRM
  Tot(47)       10        5     2027    230.5    521.1   1397.4   438.00      0.0    222.9      7.6     17.4      0.0    128.1       63    289.2    288.0       89     0.000     0.000     0.000     0.000      107        0        0        0        5        6        8    20.606       85     40.0    8.251   -9.900     1.98    0.000    0.000       30        8     2027  Maize_Short_Soroca_10May_Optimal_85_MOHC.PRM
  Tot(48)       10        5     2028    131.2    635.2   1517.8   442.00      0.0    128.5      2.7      1.4      0.0    110.8       43    242.4    243.7       70     0.000     0.000     0.000     0.000      102        0        0        0        7        9       24    13.853       56     36.8    5.100   -9.900     1.45    0.000    0.000       30        8     2028  Maize_Short_Soroca_10May_Optimal_85_MOHC.PRM
  Tot(49)       10        5     2029    171.6    594.7   1512.4   445.00      0.0    169.2      2.4      3.3      0.0    150.3       56    232.9    232.9       77     0.000     0.000     0.000     0.000      101        0        0        0        4       15       19    14.562       59     37.5    5.463   -9.900     1.45    0.000    0.000       30        8     2029  Maize_Short_Soroca_10May_Optimal_85_MOHC.PRM
  Tot(50)       10        5     2030    283.3    540.7   1368.6   449.00      0.0    245.5     37.8     50.9      0.0    136.9       72    282.1    281.6       82     0.000     0.000     0.000     0.000      107        0        0        0        8        2       14    19.224       78     39.3    7.563   -9.900     1.81    0.000    0.000       30        8     2030  Maize_Short_Soroca_10May_Optimal_85_MOHC.PRM
  Tot(51)       10        5     2031    144.8    658.0   1556.1   452.00      0.0    141.9      2.9      0.6      0.0    124.2       40    237.5    237.5       70     0.000     0.000     0.000     0.000      107        0        0        0        4       29       22    13.267       53     39.6    5.255   -9.900     1.45    0.000    0.000       30        8     2031  Maize_Short_Soroca_10May_Optimal_85_MOHC.PRM
  Tot(52)       10        5     2032    187.5    540.3   1442.9   456.00      0.0    184.1      3.4      2.3      0.0    121.2       50    262.2    261.3       86     0.000     0.000     0.000     0.000      107        0        0        0        5       22        9    18.461       75     40.5    7.475   -9.900     1.95    0.000    0.000       30        8     2032  Maize_Short_Soroca_10May_Optimal_85_MOHC.PRM
  Tot(53)       10        5     2033    220.9    600.1   1517.7   460.00      0.0    212.7      8.2     13.2      0.0    158.6       61    256.4    257.3       75     0.000     0.000     0.000     0.000      107        0        0        0        4       24       18    15.625       63     39.6    6.195   -9.900     1.49    0.000    0.000       30        8     2033  Maize_Short_Soroca_10May_Optimal_85_MOHC.PRM
  Tot(54)       10        5     2034     92.6    734.0   1629.0   464.00      0.0     87.8      4.8     14.1      0.0    101.3       24    170.4    170.9       68     0.000     0.000     0.000     0.000       83        0        0        0        7       30       22     8.333       33      2.5    0.209   -9.900     0.08    0.000    0.000       30        8     2034  Maize_Short_Soroca_10May_Optimal_85_MOHC.PRM
  Tot(55)       10        5     2035     74.7    658.5   1457.6   468.00      0.0     74.5      0.2      0.8      0.0     84.7       25    192.4    192.4       70     0.000     0.000     0.000     0.000       90        0        0        0        9       22       21    10.713       43     26.6    2.848   -9.900     1.06    0.000    0.000       30        8     2035  Maize_Short_Soroca_10May_Optimal_85_MOHC.PRM
  Tot(56)       10        5     2036    133.1    655.5   1562.6   472.00      0.0    132.4      0.7      0.0      0.0    116.4       40    238.7    238.7       71     0.000     0.000     0.000     0.000      101        0        0        0        6       20       24    13.219       53     21.0    2.781   -9.900     0.79    0.000    0.000       30        8     2036  Maize_Short_Soroca_10May_Optimal_85_MOHC.PRM
  Tot(57)       10        5     2037    199.2    517.0   1279.1   476.00      0.0    181.1     18.1     31.4      0.0    117.2       56    222.2    222.1       76     0.000     0.000     0.000     0.000      107        0        0        0       14       13       19    15.283       63     39.4    6.022   -9.900     1.77    0.000    0.000       30        8     2037  Maize_Short_Soroca_10May_Optimal_85_MOHC.PRM
  Tot(58)       10        5     2038    310.6    530.1   1419.8   481.00      0.0    255.8     54.8     63.8      0.0    107.6       67    308.4    307.8       84     0.000     0.000     0.000     0.000      107        0        0        0       11        1       12    20.012       81     39.4    7.880   -9.900     1.89    0.000    0.000       30        8     2038  Maize_Short_Soroca_10May_Optimal_85_MOHC.PRM
  Tot(59)       10        5     2039    101.8    701.5   1612.8   485.00      0.0    100.6      1.2      1.8      0.0    130.4       32    169.4    170.1       72     0.000     0.000     0.000     0.000       86        0        0        0        8       28       21     9.309       37     22.6    2.100   -9.900     0.71    0.000    0.000       30        8     2039  Maize_Short_Soroca_10May_Optimal_85_MOHC.PRM
  Tot(60)       10        5     2040     57.4    764.9   1689.2   489.00      0.0     57.4      0.0      0.0      0.0     96.7       17    149.1    149.1       76     0.000     0.000     0.000     0.000       89        0        0        0        1       39       17     7.000       28     26.0    1.823   -9.900     0.75    0.000    0.000       30        8     2040  Maize_Short_Soroca_10May_Optimal_85_MOHC.PRM
  Tot(61)       10        5     2041     60.5    784.4   1666.2   494.00      0.0     60.4      0.1      0.8      0.0     95.3       19    167.8    167.8       67     0.000     0.000     0.000     0.000       87        0        0        0        4       31       22     8.765       35     23.3    2.044   -9.900     0.78    0.000    0.000       30        8     2041  Maize_Short_Soroca_10May_Optimal_85_MOHC.PRM
  Tot(62)       10        5     2042    208.1    634.7   1507.2   499.00      0.0    178.7     29.4     47.1      0.0    136.3       41    212.7    212.7       75     0.000     0.000     0.000     0.000       96        0        0        0        5       23       20    12.560       50     32.2    4.049   -9.900     1.17    0.000    0.000       30        8     2042  Maize_Short_Soroca_10May_Optimal_85_MOHC.PRM
  Tot(63)       10        5     2043     27.6    816.3   1681.5   504.00      0.0     27.4      0.2      0.6      0.0     62.2       10    146.1    146.1       73     0.000     0.000     0.000     0.000       84        0        0        0        4       40       19     6.500       26     20.4    1.325   -9.900     0.65    0.000    0.000       30        8     2043  Maize_Short_Soroca_10May_Optimal_85_MOHC.PRM
  Tot(64)       10        5     2044    125.5    639.8   1580.3   508.00      0.0    125.4      0.1      0.0      0.0    133.9       41    205.0    205.0       74     0.000     0.000     0.000     0.000       94        0        0        0        4       19       21    12.037       48     30.5    3.672   -9.900     1.09    0.000    0.000       30        8     2044  Maize_Short_Soroca_10May_Optimal_85_MOHC.PRM
  Tot(65)       10        5     2045    232.0    576.3   1418.2   513.00      0.0    215.6     16.4     26.1      0.0    133.2       59    240.0    238.9       75     0.000     0.000     0.000     0.000      107        0        0        0        5        8       16    15.346       62     39.2    6.010   -9.900     1.61    0.000    0.000       30        8     2045  Maize_Short_Soroca_10May_Optimal_85_MOHC.PRM
  Tot(66)       10        5     2046    132.4    662.3   1626.4   519.00      0.0    132.0      0.4      0.8      0.0    125.0       39    219.5    220.6       73     0.000     0.000     0.000     0.000       94        0        0        0        3       16       21    12.274       48     30.2    3.709   -9.900     1.10    0.000    0.000       30        8     2046  Maize_Short_Soroca_10May_Optimal_85_MOHC.PRM
  Tot(67)       10        5     2047    154.8    769.9   1757.6   524.00      0.0    141.6     13.2     26.2      0.0    135.8       26    159.0    159.0       72     0.000     0.000     0.000     0.000       81        0        0        0        2       35       21     7.480       29     13.7    1.025   -9.900     0.38    0.000    0.000       30        8     2047  Maize_Short_Soroca_10May_Optimal_85_MOHC.PRM
  Tot(68)       10        5     2048     76.7    637.0   1659.0   529.00      0.0     76.2      0.5      0.0      0.0    103.7       32    181.0    181.0       70     0.000     0.000     0.000     0.000       90        0        0        0        3       23       21    11.063       43     26.4    2.918   -9.900     1.05    0.000    0.000       30        8     2048  Maize_Short_Soroca_10May_Optimal_85_MOHC.PRM
  Tot(69)       10        5     2049     52.0    758.4   1622.7   535.00      0.0     52.0      0.0      0.0      0.0     85.5       19    165.8    165.8       65     0.000     0.000     0.000     0.000       85        0        0        0        4       29       22     8.470       34     19.3    1.635   -9.900     0.67    0.000    0.000       30        8     2049  Maize_Short_Soroca_10May_Optimal_85_MOHC.PRM
  Tot(70)       10        5     2050    126.2    694.8   1698.4   541.00      0.0    124.3      1.9      0.0      0.0    116.5       32    228.9    228.9       75     0.000     0.000     0.000     0.000       99        0        0        0        3       20       21    13.547       53     35.0    4.744   -9.900     1.38    0.000    0.000       30        8     2050  Maize_Short_Soroca_10May_Optimal_85_MOHC.PRM
  Tot(71)       10        5     2051    132.9    650.9   1525.6   546.00      0.0    128.6      4.3      7.5      0.0    108.3       39    230.8    230.8       71     0.000     0.000     0.000     0.000       96        0        0        0        7       12       22    12.989       52     15.1    1.965   -9.900     0.59    0.000    0.000       30        8     2051  Maize_Short_Soroca_10May_Optimal_85_MOHC.PRM
  Tot(72)       10        5     2052    117.2    657.1   1519.3   552.00      0.0    111.8      5.4     10.3      0.0    127.0       36    177.8    177.8       69     0.000     0.000     0.000     0.000       87        0        0        0        5       26       22     9.894       39     18.6    1.840   -9.900     0.62    0.000    0.000       30        8     2052  Maize_Short_Soroca_10May_Optimal_85_MOHC.PRM
  Tot(73)       10        5     2053    107.4    642.5   1605.1   558.00      0.0    107.3      0.1      0.0      0.0    110.4       37    217.4    217.4       72     0.000     0.000     0.000     0.000       97        0        0        0        2       16       21    13.470       53     33.1    4.452   -9.900     1.37    0.000    0.000       30        8     2053  Maize_Short_Soroca_10May_Optimal_85_MOHC.PRM
  Tot(74)       10        5     2054    167.2    639.8   1633.4   564.00      0.0    154.4     12.8     30.4      0.0    123.5       43    217.7    217.7       71     0.000     0.000     0.000     0.000       94        0        0        0        3       16       22    12.440       49     29.9    3.723   -9.900     1.10    0.000    0.000       30        8     2054  Maize_Short_Soroca_10May_Optimal_85_MOHC.PRM
  Tot(75)       10        5     2055     37.5    730.9   1685.5   571.00      0.0     37.5      0.0      0.0      0.0     72.1       16    160.3    160.3       71     0.000     0.000     0.000     0.000       83        0        0        0        4       32       21     8.180       32     20.2    1.649   -9.900     0.72    0.000    0.000       30        8     2055  Maize_Short_Soroca_10May_Optimal_85_MOHC.PRM
  Tot(76)       10        5     2056    117.6    601.6   1487.1   577.00      0.0    115.9      1.7      1.1      0.0    106.9       42    228.4    228.4       74     0.000     0.000     0.000     0.000      107        0        0        0        5        7       25    14.503       58     35.9    5.208   -9.900     1.55    0.000    0.000       30        8     2056  Maize_Short_Soroca_10May_Optimal_85_MOHC.PRM
  Tot(77)       10        5     2057    246.4    553.2   1495.6   583.00      0.0    230.1     16.3     35.1      0.0    140.2       73    277.5    276.9       81     0.000     0.000     0.000     0.000      107        0        0        0        6        1       14    19.282       78     39.3    7.579   -9.900     1.81    0.000    0.000       30        8     2057  Maize_Short_Soroca_10May_Optimal_85_MOHC.PRM
  Tot(78)       10        5     2058    124.2    763.7   1730.1   590.00      0.0    120.3      3.9      6.9      0.0    131.6       32    191.8    192.4       65     0.000     0.000     0.000     0.000       89        0        0        0        3       25       24    10.012       39     25.4    2.539   -9.900     0.79    0.000    0.000       30        8     2058  Maize_Short_Soroca_10May_Optimal_85_MOHC.PRM
  Tot(79)       10        5     2059    173.8    617.5   1587.2   597.00      0.0    173.2      0.6      0.0      0.0    145.2       56    244.0    243.6       74     0.000     0.000     0.000     0.000      107        0        0        0        3       17       20    15.745       62     39.4    6.201   -9.900     1.59    0.000    0.000       30        8     2059  Maize_Short_Soroca_10May_Optimal_85_MOHC.PRM
  Tot(80)       10        5     2060     90.0    803.0   1829.1   604.00      0.0     90.0      0.0      0.0      0.0    117.0       22    176.1    176.5       73     0.000     0.000     0.000     0.000       88        0        0        0        1       34       20     8.333       33     15.3    1.277   -9.900     0.44    0.000    0.000       30        8     2060  Maize_Short_Soroca_10May_Optimal_85_MOHC.PRM
  Tot(81)       10        5     2061     43.7    747.3   1669.0   611.00      0.0     43.7      0.0      0.0      0.0     79.0       18    165.7    165.7       67     0.000     0.000     0.000     0.000       85        0        0        0        5       30       22     8.664       34     15.0    1.301   -9.900     0.54    0.000    0.000       30        8     2061  Maize_Short_Soroca_10May_Optimal_85_MOHC.PRM
  Tot(82)       10        5     2062    112.8    769.3   1805.0   618.00      0.0    112.7      0.1      0.0      0.0    130.0       31    192.6    192.6       67     0.000     0.000     0.000     0.000       88        0        0        0        1       23       23    10.243       40     24.4    2.499   -9.900     0.80    0.000    0.000       30        8     2062  Maize_Short_Soroca_10May_Optimal_85_MOHC.PRM
  Tot(83)       10        5     2063    151.8    676.7   1733.5   625.00      0.0    141.5     10.3     20.9      0.0    120.6       39    220.2    220.2       71     0.000     0.000     0.000     0.000       96        0        0        0        2       14       22    13.305       52     32.0    4.255   -9.900     1.26    0.000    0.000       30        8     2063  Maize_Short_Soroca_10May_Optimal_85_MOHC.PRM
  Tot(84)       10        5     2064    115.3    659.2   1793.9   632.00      0.0    115.3      0.0      0.0      0.0    104.7       30    211.3    211.3       77     0.000     0.000     0.000     0.000       96        0        0        0        1       19       19    12.577       49     32.8    4.126   -9.900     1.36    0.000    0.000       30        8     2064  Maize_Short_Soroca_10May_Optimal_85_MOHC.PRM
  Tot(85)       10        5     2065     74.6    674.8   1717.3   639.00      0.0     74.6      0.0      0.0      0.0     99.7       24    185.0    185.0       76     0.000     0.000     0.000     0.000       96        0        0        0        0       33       20    10.935       43     32.8    3.585   -9.900     1.27    0.000    0.000       30        8     2065  Maize_Short_Soroca_10May_Optimal_85_MOHC.PRM
  Tot(86)       10        5     2066    132.6    678.2   1671.0   647.00      0.0    129.2      3.4      0.2      0.0    118.6       32    196.2    196.2       72     0.000     0.000     0.000     0.000       93        0        0        0        1       23       21    11.348       45     29.5    3.352   -9.900     1.18    0.000    0.000       30        8     2066  Maize_Short_Soroca_10May_Optimal_85_MOHC.PRM
  Tot(87)       10        5     2067    133.7    776.1   1854.5   654.00      0.0    129.0      4.7      0.0      0.0    126.2       30    218.0    218.0       72     0.000     0.000     0.000     0.000       93        0        0        0        0       20       21    11.462       45     29.4    3.373   -9.900     0.99    0.000    0.000       30        8     2067  Maize_Short_Soroca_10May_Optimal_85_MOHC.PRM
  Tot(88)       10        5     2068    186.4    600.3   1641.4   662.00      0.0    183.5      2.9      1.8      0.0    114.1       49    289.9    289.1       83     0.000     0.000     0.000     0.000      107        0        0        0        1        7       12    20.019       79     39.6    7.930   -9.900     1.96    0.000    0.000       30        8     2068  Maize_Short_Soroca_10May_Optimal_85_MOHC.PRM
  Tot(89)       10        5     2069    185.0    660.6   1752.4   669.00      0.0    170.7     14.3     11.8      0.0     86.4       34    295.0    295.5       79     0.000     0.000     0.000     0.000      107        0        0        0        1        3       16    18.235       72     38.9    7.098   -9.900     1.86    0.000    0.000       30        8     2069  Maize_Short_Soroca_10May_Optimal_85_MOHC.PRM
  Tot(90)       10        5     2070    150.3    676.7   1674.6   677.00      0.0    143.2      7.1     21.3      0.0     99.3       36    247.0    247.3       72     0.000     0.000     0.000     0.000      102        0        0        0        3        5       21    15.203       60     37.0    5.625   -9.900     1.63    0.000    0.000       30        8     2070  Maize_Short_Soroca_10May_Optimal_85_MOHC.PRM
  Tot(91)       10        5     2071    150.1    703.5   1719.8   685.00      0.0    136.4     13.7     21.9      0.0    110.6       34    220.0    220.0       72     0.000     0.000     0.000     0.000       93        0        0        0        4       16       22    12.232       48      7.3    0.887   -9.900     0.27    0.000    0.000       30        8     2071  Maize_Short_Soroca_10May_Optimal_85_MOHC.PRM
  Tot(92)       10        5     2072    166.5    694.4   1760.8   693.00      0.0    159.1      7.4      7.2      0.0    134.6       45    236.4    236.4       73     0.000     0.000     0.000     0.000       97        0        0        0        3        8       21    13.731       54     33.0    4.528   -9.900     1.23    0.000    0.000       30        8     2072  Maize_Short_Soroca_10May_Optimal_85_MOHC.PRM
  Tot(93)       10        5     2073    118.3    676.5   1686.6   701.00      0.0    116.8      1.5      0.0      0.0    113.9       35    223.8    223.8       75     0.000     0.000     0.000     0.000       99        0        0        0        2       17       20    13.919       55     35.0    4.878   -9.900     1.45    0.000    0.000       30        8     2073  Maize_Short_Soroca_10May_Optimal_85_MOHC.PRM
  Tot(94)       10        5     2074    140.5    721.3   1733.2   709.00      0.0    130.6      9.9      1.3      0.0    107.2       30    244.2    244.2       73     0.000     0.000     0.000     0.000      102        0        0        0        1       22       22    13.032       51     34.3    4.476   -9.900     1.28    0.000    0.000       30        8     2074  Maize_Short_Soroca_10May_Optimal_85_MOHC.PRM
  Tot(95)       10        5     2075     90.5    765.7   1842.6   717.00      0.0     90.0      0.5      0.0      0.0    116.6       23    176.5    176.5       74     0.000     0.000     0.000     0.000       90        0        0        0        1       33       19     9.214       36     22.8    2.100   -9.900     0.72    0.000    0.000       30        8     2075  Maize_Short_Soroca_10May_Optimal_85_MOHC.PRM
  Tot(96)       10        5     2076    104.5    707.9   1767.6   725.00      0.0    103.6      0.9      1.8      0.0    121.4       32    185.3    185.3       72     0.000     0.000     0.000     0.000       88        0        0        0        7       29       21    10.030       40      3.7    0.376   -9.900     0.12    0.000    0.000       30        8     2076  Maize_Short_Soroca_10May_Optimal_85_MOHC.PRM
  Tot(97)       10        5     2077    104.5    684.1   1708.7   733.00      0.0    102.9      1.6      0.0      0.0     81.8       24    206.5    206.5       72     0.000     0.000     0.000     0.000       96        0        0        0        1       17       21    12.286       49     32.0    3.929   -9.900     1.43    0.000    0.000       30        8     2077  Maize_Short_Soroca_10May_Optimal_85_MOHC.PRM
  Tot(98)       10        5     2078    137.9    632.1   1675.1   742.00      0.0    137.9      0.0      0.0      0.0    115.7       48    247.6    247.6       74     0.000     0.000     0.000     0.000      107        0        0        0        5       12       20    16.495       66     38.5    6.350   -9.900     1.75    0.000    0.000       30        8     2078  Maize_Short_Soroca_10May_Optimal_85_MOHC.PRM
  Tot(99)       10        5     2079    135.6    706.4   1769.6   750.00      0.0    130.8      4.8      8.9      0.0    140.5       38    179.7    179.7       68     0.000     0.000     0.000     0.000       86        0        0        0        2       24       22     9.521       38     19.3    1.836   -9.900     0.60    0.000    0.000       30        8     2079  Maize_Short_Soroca_10May_Optimal_85_MOHC.PRM
 Tot(100)       10        5     2080    165.7    750.0   1840.7   758.00      0.0    162.8      2.9      0.0      0.0    149.3       37    220.1    219.4       70     0.000     0.000     0.000     0.000      107        0        0        0        1       33       22    11.435       46      8.9    1.020   -9.900     0.28    0.000    0.000       30        8     2080  Maize_Short_Soroca_10May_Optimal_85_MOHC.PRM
 Tot(101)       10        5     2081    113.8    734.2   1881.2   767.00      0.0    108.3      5.5      0.0      0.0    113.4       29    212.9    213.6       71     0.000     0.000     0.000     0.000       98        0        0        0        0       18       21    12.613       50     33.8    4.261   -9.900     1.33    0.000    0.000       30        8     2081  Maize_Short_Soroca_10May_Optimal_85_MOHC.PRM
 Tot(102)       10        5     2082     87.1    777.9   1920.1   775.00      0.0     82.8      4.3     12.4      0.0     81.1       19    205.1    205.1       70     0.000     0.000     0.000     0.000       94        0        0        0        1       24       22    11.030       44     29.9    3.296   -9.900     1.16    0.000    0.000       30        8     2082  Maize_Short_Soroca_10May_Optimal_85_MOHC.PRM
 Tot(103)       10        5     2083    104.6    739.4   1764.6   784.00      0.0    102.9      1.7      4.8      0.0    122.8       33    187.6    187.6       68     0.000     0.000     0.000     0.000       90        0        0        0        3       20       22    10.911       44     26.1    2.846   -9.900     0.93    0.000    0.000       30        8     2083  Maize_Short_Soroca_10May_Optimal_85_MOHC.PRM
 Tot(104)       10        5     2084    186.1    635.5   1708.1   792.00      0.0    144.3     41.8     90.2      0.0     80.8       26    180.9    180.9       72     0.000     0.000     0.000     0.000       90        0        0        0        6       25       21    10.899       44     26.8    2.925   -9.900     1.13    0.000    0.000       30        8     2084  Maize_Short_Soroca_10May_Optimal_85_MOHC.PRM
 Tot(105)       10        5     2085    117.8    741.2   1900.9   801.00      0.0    115.3      2.5      8.5      0.0    135.0       31    173.5    173.5       73     0.000     0.000     0.000     0.000       88        0        0        0        0       30       20     9.606       39     24.8    2.381   -9.900     0.81    0.000    0.000       30        8     2085  Maize_Short_Soroca_10May_Optimal_85_MOHC.PRM
 Tot(106)       10        5     2086     99.4    717.9   1833.4   810.00      0.0     99.1      0.3      0.0      0.0     96.3       28    224.6    224.3       69     0.000     0.000     0.000     0.000      107        0        0        0        1       20       24    13.389       54      6.3    0.837   -9.900     0.26    0.000    0.000       30        8     2086  Maize_Short_Soroca_10May_Optimal_85_MOHC.PRM
 Tot(107)       10        5     2087     15.8    880.5   1959.0   818.00      0.0     15.8      0.0      0.0      0.0     59.8        9    145.0    145.2       77     0.000     0.000     0.000     0.000       89        0        0        0        0       41       17     6.558       26     16.2    1.064   -9.900     0.53    0.000    0.000       30        8     2087  Maize_Short_Soroca_10May_Optimal_85_MOHC.PRM
 Tot(108)       10        5     2088     54.0    859.8   1918.5   827.00      0.0     47.0      7.0      8.6      0.0     78.4       13    146.1    146.1       73     0.000     0.000     0.000     0.000       83        0        0        0        1       38       20     6.574       27      6.8    0.445   -9.900     0.20    0.000    0.000       30        8     2088  Maize_Short_Soroca_10May_Optimal_85_MOHC.PRM
 Tot(109)       10        5     2089     86.4    815.4   1901.6   836.00      0.0     85.4      1.0      1.8      0.0    115.2       23    170.3    170.3       69     0.000     0.000     0.000     0.000       86        0        0        0        2       30       22     8.527       34      0.3    0.028   -9.900     0.01    0.000    0.000       30        8     2089  Maize_Short_Soroca_10May_Optimal_85_MOHC.PRM
 Tot(110)       10        5     2090    230.2    751.8   1842.1   845.00      0.0    191.4     38.8     66.5      0.0    127.2       37    215.4    215.4       69     0.000     0.000     0.000     0.000       94        0        0        0        1       15       22    12.170       49     29.8    3.622   -9.900     1.08    0.000    0.000       30        8     2090  Maize_Short_Soroca_10May_Optimal_85_MOHC.PRM
 Tot(111)       10        5     2091     61.8    878.8   1965.4   854.00      0.0     61.8      0.0      0.0      0.0     97.9       16    151.9    151.9       71     0.000     0.000     0.000     0.000       81        0        0        0        1       37       21     6.712       27      3.8    0.255   -9.900     0.10    0.000    0.000       30        8     2091  Maize_Short_Soroca_10May_Optimal_85_MOHC.PRM
 Tot(112)       10        5     2092     26.1    879.6   1901.6   863.00      0.0     26.1      0.0      0.0      0.0     68.5       11    146.1    146.1       73     0.000     0.000     0.000     0.000       83        0        0        0        1       38       20     6.706       27      8.9    0.594   -9.900     0.28    0.000    0.000       30        8     2092  Maize_Short_Soroca_10May_Optimal_85_MOHC.PRM
 Tot(113)       10        5     2093    104.1    829.3   1938.9   872.00      0.0    102.0      2.1      0.0      0.0    101.6       22    220.6    220.6       70     0.000     0.000     0.000     0.000       99        0        0        0        0       25       23    11.221       46      6.3    0.706   -9.900     0.22    0.000    0.000       30        8     2093  Maize_Short_Soroca_10May_Optimal_85_MOHC.PRM
 Tot(114)       10        5     2094     66.7    803.6   1911.3   881.00      0.0     66.7      0.0      0.0      0.0    104.8       19    157.1    157.1       75     0.000     0.000     0.000     0.000       88        0        0        0        0       35       19     8.077       33     24.9    2.009   -9.900     0.77    0.000    0.000       30        8     2094  Maize_Short_Soroca_10May_Optimal_85_MOHC.PRM
 Tot(115)       10        5     2095    107.2    846.4   1922.9   890.00      0.0    102.3      4.9      0.0      0.0     95.3       17    156.3    156.3       70     0.000     0.000     0.000     0.000       83        0        0        0        0       34       21     7.367       30      6.7    0.491   -9.900     0.20    0.000    0.000       30        8     2095  Maize_Short_Soroca_10May_Optimal_85_MOHC.PRM
 Tot(116)       10        5     2096    183.7    712.4   1843.6   899.00      0.0    141.2     42.5     40.3      0.0    124.1       33    187.4    187.4       73     0.000     0.000     0.000     0.000       92        0        0        0        2       23       21    11.245       46     28.7    3.228   -9.900     1.04    0.000    0.000       30        8     2096  Maize_Short_Soroca_10May_Optimal_85_MOHC.PRM
 Tot(117)       10        5     2097     90.0    770.2   1852.4   908.00      0.0     86.9      3.1      5.5      0.0    117.1       23    154.2    154.2       74     0.000     0.000     0.000     0.000       86        0        0        0        0       37       19     7.479       31     22.9    1.713   -9.900     0.65    0.000    0.000       30        8     2097  Maize_Short_Soroca_10May_Optimal_85_MOHC.PRM
 Tot(118)       10        5     2098     91.8    778.0   1899.3   917.00      0.0     90.4      1.4      0.0      0.0    107.1       26    193.4    193.4       68     0.000     0.000     0.000     0.000       91        0        0        0        2       21       22    10.236       42      4.8    0.495   -9.900     0.17    0.000    0.000       30        8     2098  Maize_Short_Soroca_10May_Optimal_85_MOHC.PRM
 Tot(119)       10        5     2099    209.7    611.2   1727.9   927.00      0.0    180.2     29.5      0.0      0.0     90.9       41    303.4    302.1       88     0.000     0.000     0.000     0.000      107        0        0        0        2        8        8    20.477       85     39.9    8.174   -9.900     2.07    0.000    0.000       30        8     2099  Maize_Short_Soroca_10May_Optimal_85_MOHC.PRM
