AquaCrop 7.0 (August 2022) - Output created on (date) : 16-05-2023   at (time) : 15:16:43

    RunNr     Day1   Month1    Year1     Rain      ETo       GD     CO2      Irri   Infilt   Runoff    Drain   Upflow        E     E/Ex       Tr      TrW   Tr/Trx    SaltIn   SaltOut    SaltUp  SaltProf     Cycle   SaltStr  FertStr  WeedStr  TempStr   ExpStr   StoStr  BioMass  Brelative   HI    Y(dry)  Y(fresh)    WPet      Bin     Bout     DayN   MonthN    YearN
                                           mm       mm  degC.day    ppm        mm       mm       mm       mm       mm       mm        %       mm       mm        %    ton/ha    ton/ha    ton/ha    ton/ha      days       %        %        %        %        %        %    ton/ha        %       %    ton/ha   ton/ha    kg/m3   ton/ha   ton/ha
   Tot(1)       10        5     1981    314.3    464.0   1197.4   340.11      0.0    269.9     44.4     53.0      0.0    107.6       54    270.0    270.2      100     0.000     0.000     0.000     0.000      107        0        0        0       13        2        0    20.553       97     40.0    8.221   -9.900     2.18    0.000    0.000       30        8     1981  Maize_Short_Soroca_10May_Optimal_26_MOHC.PRM
   Tot(2)       10        5     1982    276.4    458.5   1155.8   341.22      0.0    240.9     35.5     39.2      0.0     94.7       46    252.2    251.7      100     0.000     0.000     0.000     0.000      107        0        0        0       13        2        0    20.428       96     40.0    8.171   -9.900     2.36    0.000    0.000       30        8     1982  Maize_Short_Soroca_10May_Optimal_26_MOHC.PRM
   Tot(3)       10        5     1983    220.9    450.3   1233.2   342.84      0.0    215.8      5.1      0.0      0.0     89.8       45    247.6    246.5      100     0.000     0.000     0.000     0.000      107        0        0        0        9        2        0    20.640       96     40.0    8.259   -9.900     2.45    0.000    0.000       30        8     1983  Maize_Short_Soroca_10May_Optimal_26_MOHC.PRM
   Tot(4)       10        5     1984    346.0    418.3   1030.6   344.40      0.0    323.8     22.2     30.1      0.0    140.7       86    231.5    231.8      100     0.000     0.000     0.000     0.000      107        0        0        0       20        0        0    19.059       98     40.0    7.623   -9.900     2.05    0.000    0.000       30        8     1984  Maize_Short_Soroca_10May_Optimal_26_MOHC.PRM
   Tot(5)       10        5     1985    364.9    460.3   1158.1   345.87      0.0    325.3     39.6     58.0      0.0    139.0       74    264.0    261.2      100     0.000     0.000     0.000     0.000      107        0        0        0       15        0        0    20.309       98     40.0    8.124   -9.900     2.02    0.000    0.000       30        8     1985  Maize_Short_Soroca_10May_Optimal_26_MOHC.PRM
   Tot(6)       10        5     1986    167.6    525.2   1243.1   347.19      0.0    167.2      0.4      0.0      0.0     99.7       42    263.7    266.3       93     0.000     0.000     0.000     0.000      107        0        0        0       11        7        5    18.365       87     40.0    7.347   -9.900     2.02    0.000    0.000       30        8     1986  Maize_Short_Soroca_10May_Optimal_26_MOHC.PRM
   Tot(7)       10        5     1987    259.9    468.9   1121.6   348.98      0.0    253.3      6.6      3.8      0.0    129.3       68    271.3    272.5      100     0.000     0.000     0.000     0.000      107        0        0        0       18        7        0    19.706       95     40.4    7.955   -9.900     1.99    0.000    0.000       30        8     1987  Maize_Short_Soroca_10May_Optimal_26_MOHC.PRM
   Tot(8)       10        5     1988    304.7    438.6   1233.5   351.45      0.0    289.8     14.9     33.2      0.0    136.1       85    285.2    283.8      100     0.000     0.000     0.000     0.000      107        0        0        0        9        1        0    21.784       97     40.0    8.716   -9.900     2.07    0.000    0.000       30        8     1988  Maize_Short_Soroca_10May_Optimal_26_MOHC.PRM
   Tot(9)       10        5     1989    291.8    465.2   1163.9   352.89      0.0    273.3     18.5     23.3      0.0    100.2       52    274.5    275.9      100     0.000     0.000     0.000     0.000      107        0        0        0       15        2        0    20.978       97     40.1    8.407   -9.900     2.24    0.000    0.000       30        8     1989  Maize_Short_Soroca_10May_Optimal_26_MOHC.PRM
  Tot(10)       10        5     1990    185.3    478.8   1107.1   354.16      0.0    183.6      1.7      3.5      0.0    119.8       62    265.3    264.9       94     0.000     0.000     0.000     0.000      107        0        0        0       18        3        5    19.626       90     40.0    7.855   -9.900     2.04    0.000    0.000       30        8     1990  Maize_Short_Soroca_10May_Optimal_26_MOHC.PRM
  Tot(11)       10        5     1991    435.0    413.3   1140.4   355.48      0.0    387.2     47.8     36.2      0.0    125.7       81    268.1    268.4      100     0.000     0.000     0.000     0.000      107        0        0        0       19        0        0    22.146       98     40.0    8.861   -9.900     2.25    0.000    0.000       30        8     1991  Maize_Short_Soroca_10May_Optimal_26_MOHC.PRM
  Tot(12)       10        5     1992    182.9    517.7   1235.3   356.27      0.0    180.8      2.1      5.4      0.0    136.5       71    263.6    264.4       81     0.000     0.000     0.000     0.000      107        0        0        0       14        5       14    17.257       75     39.6    6.837   -9.900     1.71    0.000    0.000       30        8     1992  Maize_Short_Soroca_10May_Optimal_26_MOHC.PRM
  Tot(13)       10        5     1993    238.3    470.2   1121.3   356.95      0.0    231.9      6.4     12.8      0.0    126.3       65    263.2    262.8       99     0.000     0.000     0.000     0.000      107        0        0        0       15        1        0    19.838       97     40.0    7.938   -9.900     2.04    0.000    0.000       30        8     1993  Maize_Short_Soroca_10May_Optimal_26_MOHC.PRM
  Tot(14)       10        5     1994    259.0    518.1   1218.9   358.63      0.0    228.7     30.3     14.2      0.0    122.5       55    244.7    244.5       83     0.000     0.000     0.000     0.000      107        0        0        0       13        8       12    16.042       72     39.6    6.355   -9.900     1.73    0.000    0.000       30        8     1994  Maize_Short_Soroca_10May_Optimal_26_MOHC.PRM
  Tot(15)       10        5     1995    341.0    494.9   1277.8   360.62      0.0    307.5     33.5     13.3      0.0    111.6       54    304.2    305.3      100     0.000     0.000     0.000     0.000      107        0        0        0        7        3        0    22.177       96     40.1    8.891   -9.900     2.14    0.000    0.000       30        8     1995  Maize_Short_Soroca_10May_Optimal_26_MOHC.PRM
  Tot(16)       10        5     1996    285.8    499.8   1240.2   362.37      0.0    263.8     22.0     10.7      0.0     96.6       42    273.3    270.3      100     0.000     0.000     0.000     0.000      107        0        0        0       11        3        0    20.786       95     40.0    8.314   -9.900     2.25    0.000    0.000       30        8     1996  Maize_Short_Soroca_10May_Optimal_26_MOHC.PRM
  Tot(17)       10        5     1997    317.0    446.1   1164.4   363.47      0.0    301.4     15.6      0.0      0.0    104.6       53    255.2    257.5      100     0.000     0.000     0.000     0.000      107        0        0        0       14        1        0    21.697       97     40.0    8.679   -9.900     2.41    0.000    0.000       30        8     1997  Maize_Short_Soroca_10May_Optimal_26_MOHC.PRM
  Tot(18)       10        5     1998    320.2    440.0   1196.3   366.50      0.0    298.9     21.3      7.0      0.0    127.0       73    268.6    268.7      100     0.000     0.000     0.000     0.000      107        0        0        0       16        1        0    20.932       97     40.0    8.373   -9.900     2.12    0.000    0.000       30        8     1998  Maize_Short_Soroca_10May_Optimal_26_MOHC.PRM
  Tot(19)       10        5     1999    153.6    513.3   1335.1   368.14      0.0    153.6      0.0      0.0      0.0     95.8       41    266.1    265.9       90     0.000     0.000     0.000     0.000      107        0        0        0        7       13        8    18.930       81     40.3    7.633   -9.900     2.11    0.000    0.000       30        8     1999  Maize_Short_Soroca_10May_Optimal_26_MOHC.PRM
  Tot(20)       10        5     2000    240.5    518.4   1236.8   369.41      0.0    230.5     10.0      0.0      0.0     93.1       40    288.7    288.4      100     0.000     0.000     0.000     0.000      107        0        0        0       11        4        0    20.915       95     40.0    8.368   -9.900     2.19    0.000    0.000       30        8     2000  Maize_Short_Soroca_10May_Optimal_26_MOHC.PRM
  Tot(21)       10        5     2001    261.8    486.9   1221.2   371.07      0.0    252.4      9.4     21.1      0.0    122.2       68    305.0    305.9       96     0.000     0.000     0.000     0.000      107        0        0        0       15        0        3    21.456       94     40.0    8.574   -9.900     2.01    0.000    0.000       30        8     2001  Maize_Short_Soroca_10May_Optimal_26_MOHC.PRM
  Tot(22)       10        5     2002    365.2    508.0   1322.2   373.16      0.0    331.2     34.0      0.0      0.0    133.6       61    305.1    302.8       99     0.000     0.000     0.000     0.000      107        0        0        0        9       17        0    21.518       92     40.7    8.759   -9.900     2.00    0.000    0.000       30        8     2002  Maize_Short_Soroca_10May_Optimal_26_MOHC.PRM
  Tot(23)       10        5     2003    330.5    556.9   1324.9   375.80      0.0    274.7     55.8     10.1      0.0     90.6       32    287.7    285.8      100     0.000     0.000     0.000     0.000      107        0        0        0        7        8        0    20.973       91     40.0    8.389   -9.900     2.22    0.000    0.000       30        8     2003  Maize_Short_Soroca_10May_Optimal_26_MOHC.PRM
  Tot(24)       10        5     2004    237.8    487.6   1126.2   377.49      0.0    216.4     21.4      0.0      0.0     72.5       31    265.1    267.1      100     0.000     0.000     0.000     0.000      107        0        0        0       16       12        0    20.430       90     40.0    8.172   -9.900     2.42    0.000    0.000       30        8     2004  Maize_Short_Soroca_10May_Optimal_26_MOHC.PRM
  Tot(25)       10        5     2005    211.8    473.0   1222.1   379.80      0.0    210.1      1.7      0.0      0.0    104.9       53    283.0    283.3      100     0.000     0.000     0.000     0.000      107        0        0        0        9        4        0    22.102       96     40.1    8.857   -9.900     2.28    0.000    0.000       30        8     2005  Maize_Short_Soroca_10May_Optimal_26_MOHC.PRM
  Tot(26)       10        5     2006    319.1    493.0   1210.2   381.90      0.0    302.9     16.2     24.4      0.0    139.5       76    303.0    304.6       96     0.000     0.000     0.000     0.000      107        0        0        0       15        5        3    21.169       92     40.2    8.503   -9.900     1.92    0.000    0.000       30        8     2006  Maize_Short_Soroca_10May_Optimal_26_MOHC.PRM
  Tot(27)       10        5     2007    149.8    609.2   1455.8   383.77      0.0    149.8      0.0      0.0      0.0    113.2       34    240.0    239.9       82     0.000     0.000     0.000     0.000      107        0        0        0        2       23       12    15.179       64     40.1    6.086   -9.900     1.72    0.000    0.000       30        8     2007  Maize_Short_Soroca_10May_Optimal_26_MOHC.PRM
  Tot(28)       10        5     2008    339.2    532.4   1279.2   385.59      0.0    279.2     60.0      0.0      0.0    111.9       50    324.0    323.8       99     0.000     0.000     0.000     0.000      107        0        0        0        7       14        0    21.833       92     40.4    8.826   -9.900     2.02    0.000    0.000       30        8     2008  Maize_Short_Soroca_10May_Optimal_26_MOHC.PRM
  Tot(29)       10        5     2009    217.5    553.8   1302.8   387.37      0.0    216.2      1.3      0.0      0.0    138.6       60    294.9    295.3       88     0.000     0.000     0.000     0.000      107        0        0        0        8        5       11    19.164       81     39.8    7.624   -9.900     1.76    0.000    0.000       30        8     2009  Maize_Short_Soroca_10May_Optimal_26_MOHC.PRM
  Tot(30)       10        5     2010    343.4    488.6   1373.5   389.85      0.0    313.0     30.4     53.9      0.0    134.0       73    312.3    312.3       99     0.000     0.000     0.000     0.000      107        0        0        0        8        0        1    22.696       97     40.0    9.077   -9.900     2.03    0.000    0.000       30        8     2010  Maize_Short_Soroca_10May_Optimal_26_MOHC.PRM
  Tot(31)       10        5     2011    183.0    549.1   1314.7   391.63      0.0    180.6      2.4      0.0      0.0     97.0       38    288.6    287.8       95     0.000     0.000     0.000     0.000      107        0        0        0        6        5        3    20.476       89     40.0    8.197   -9.900     2.13    0.000    0.000       30        8     2011  Maize_Short_Soroca_10May_Optimal_26_MOHC.PRM
  Tot(32)       10        5     2012    140.2    605.5   1390.8   393.82      0.0    140.1      0.1      0.0      0.0    124.9       39    222.3    223.5       78     0.000     0.000     0.000     0.000      107        0        0        0        7       27       16    13.088       56     40.0    5.242   -9.900     1.51    0.000    0.000       30        8     2012  Maize_Short_Soroca_10May_Optimal_26_MOHC.PRM
  Tot(33)       10        5     2013    253.3    513.3   1335.9   396.48      0.0    241.6     11.7     11.7      0.0    152.0       73    266.2    265.8       85     0.000     0.000     0.000     0.000      107        0        0        0        6        4       11    18.930       80     39.5    7.469   -9.900     1.79    0.000    0.000       30        8     2013  Maize_Short_Soroca_10May_Optimal_26_MOHC.PRM
  Tot(34)       10        5     2014    311.3    502.2   1300.0   398.55      0.0    281.0     30.3     24.6      0.0    119.1       60    309.9    308.3      100     0.000     0.000     0.000     0.000      107        0        0        0        8        5        0    22.102       96     40.0    8.846   -9.900     2.06    0.000    0.000       30        8     2014  Maize_Short_Soroca_10May_Optimal_26_MOHC.PRM
  Tot(35)       10        5     2015     51.2    618.6   1358.4   401.00      0.0     51.2      0.0      0.0      0.0     79.9       22    185.8    188.3       77     0.000     0.000     0.000     0.000       97        0        0        0        7       27       19    11.029       47     33.9    3.734   -9.900     1.41    0.000    0.000       30        8     2015  Maize_Short_Soroca_10May_Optimal_26_MOHC.PRM
  Tot(36)       10        5     2016    256.1    529.1   1317.7   403.00      0.0    252.7      3.4      2.8      0.0    148.2       78    311.8    310.4       90     0.000     0.000     0.000     0.000      107        0        0        0       10        4        8    20.279       85     40.1    8.137   -9.900     1.77    0.000    0.000       30        8     2016  Maize_Short_Soroca_10May_Optimal_26_MOHC.PRM
  Tot(37)       10        5     2017    197.0    556.9   1284.6   405.00      0.0    196.3      0.7      0.0      0.0    125.9       54    283.5    284.6       86     0.000     0.000     0.000     0.000      107        0        0        0        9        8       11    18.727       79     39.9    7.464   -9.900     1.82    0.000    0.000       30        8     2017  Maize_Short_Soroca_10May_Optimal_26_MOHC.PRM
  Tot(38)       10        5     2018    244.0    523.1   1397.7   408.00      0.0    232.1     11.9      0.0      0.0     96.1       40    297.2    294.4      100     0.000     0.000     0.000     0.000      107        0        0        0        5        4        0    22.326       94     40.0    8.932   -9.900     2.27    0.000    0.000       30        8     2018  Maize_Short_Soroca_10May_Optimal_26_MOHC.PRM
  Tot(39)       10        5     2019    275.8    539.8   1395.6   410.00      0.0    252.7     23.1     34.5      0.0    155.4       74    284.8    287.2       86     0.000     0.000     0.000     0.000      107        0        0        0        4        5       11    19.437       82     39.7    7.715   -9.900     1.75    0.000    0.000       30        8     2019  Maize_Short_Soroca_10May_Optimal_26_MOHC.PRM
  Tot(40)       10        5     2020    107.7    672.8   1449.9   412.00      0.0    104.4      3.3      0.0      0.0    103.5       32    220.2    220.9       72     0.000     0.000     0.000     0.000       95        0        0        0       12       16       21    11.795       49     31.2    3.678   -9.900     1.16    0.000    0.000       30        8     2020  Maize_Short_Soroca_10May_Optimal_26_MOHC.PRM
  Tot(41)       10        5     2021    191.1    635.4   1478.5   414.00      0.0    161.9     29.2     20.5      0.0    129.1       38    203.1    202.4       73     0.000     0.000     0.000     0.000      107        0        0        0        6       28       18    11.164       46     39.9    4.452   -9.900     1.34    0.000    0.000       30        8     2021  Maize_Short_Soroca_10May_Optimal_26_MOHC.PRM
  Tot(42)       10        5     2022    193.1    634.5   1529.2   417.00      0.0    186.7      6.4      1.5      0.0    136.5       53    273.3    273.7       74     0.000     0.000     0.000     0.000      107        0        0        0        5       15       20    15.879       65     27.9    4.433   -9.900     1.08    0.000    0.000       30        8     2022  Maize_Short_Soroca_10May_Optimal_26_MOHC.PRM
  Tot(43)       10        5     2023     85.5    736.3   1625.5   419.00      0.0     85.1      0.4      0.0      0.0    111.3       25    182.7    182.9       71     0.000     0.000     0.000     0.000       88        0        0        0        4       27       21     9.621       39     24.7    2.377   -9.900     0.84    0.000    0.000       30        8     2023  Maize_Short_Soroca_10May_Optimal_26_MOHC.PRM
  Tot(44)       10        5     2024    199.2    573.0   1411.6   421.00      0.0    182.6     16.6     34.1      0.0    126.5       54    247.1    247.1       77     0.000     0.000     0.000     0.000      107        0        0        0        5        4       20    16.197       66     38.6    6.246   -9.900     1.67    0.000    0.000       30        8     2024  Maize_Short_Soroca_10May_Optimal_26_MOHC.PRM
  Tot(45)       10        5     2025    167.7    605.3   1339.2   423.00      0.0    140.9     26.8      0.0      0.0    104.3       31    169.6    169.6       69     0.000     0.000     0.000     0.000       86        0        0        0       14       29       21     8.842       38     22.9    2.023   -9.900     0.80    0.000    0.000       30        8     2025  Maize_Short_Soroca_10May_Optimal_26_MOHC.PRM
  Tot(46)       10        5     2026     98.5    704.5   1565.5   424.00      0.0     95.8      2.7      0.0      0.0     77.1       22    241.5    241.5       75     0.000     0.000     0.000     0.000      100        0        0        0        8       15       21    12.762       52     35.6    4.548   -9.900     1.43    0.000    0.000       30        8     2026  Maize_Short_Soroca_10May_Optimal_26_MOHC.PRM
  Tot(47)       10        5     2027     92.0    667.2   1521.9   426.00      0.0     88.9      3.1      5.0      0.0    106.6       29    185.1    185.1       69     0.000     0.000     0.000     0.000       88        0        0        0        8       25       22     9.792       40     24.3    2.376   -9.900     0.83    0.000    0.000       30        8     2027  Maize_Short_Soroca_10May_Optimal_26_MOHC.PRM
  Tot(48)       10        5     2028     90.2    707.0   1513.2   428.00      0.0     90.2      0.0      0.0      0.0    108.6       26    173.6    173.6       68     0.000     0.000     0.000     0.000       82        0        0        0        8       30       23     7.712       31     18.9    1.456   -9.900     0.53    0.000    0.000       30        8     2028  Maize_Short_Soroca_10May_Optimal_26_MOHC.PRM
  Tot(49)       10        5     2029    168.5    606.6   1457.6   429.00      0.0    146.0     22.5     39.7      0.0    107.7       43    222.9    222.9       69     0.000     0.000     0.000     0.000      100        0        0        0       10       10       24    13.235       54     35.2    4.662   -9.900     1.42    0.000    0.000       30        8     2029  Maize_Short_Soroca_10May_Optimal_26_MOHC.PRM
  Tot(50)       10        5     2030     53.6    770.3   1669.5   431.00      0.0     53.5      0.1      0.0      0.0     90.2       18    161.3    161.3       69     0.000     0.000     0.000     0.000       83        0        0        0        4       33       22     7.770       31     17.0    1.318   -9.900     0.53    0.000    0.000       30        8     2030  Maize_Short_Soroca_10May_Optimal_26_MOHC.PRM
  Tot(51)       10        5     2031    163.9    644.2   1499.4   432.00      0.0    159.0      4.9      0.0      0.0    117.7       41    268.1    267.9       75     0.000     0.000     0.000     0.000      107        0        0        0        7       14       21    15.232       62     38.4    5.854   -9.900     1.52    0.000    0.000       30        8     2031  Maize_Short_Soroca_10May_Optimal_26_MOHC.PRM
  Tot(52)       10        5     2032     95.1    739.6   1657.2   433.00      0.0     93.0      2.1      1.5      0.0    120.4       28    170.4    170.6       66     0.000     0.000     0.000     0.000       83        0        0        0        2       28       23     8.289       34     13.3    1.101   -9.900     0.39    0.000    0.000       30        8     2032  Maize_Short_Soroca_10May_Optimal_26_MOHC.PRM
  Tot(53)       10        5     2033    140.7    716.2   1649.4   435.00      0.0    140.1      0.6      0.0      0.0    147.0       38    191.5    191.5       66     0.000     0.000     0.000     0.000       89        0        0        0        1       21       23    10.090       41     24.9    2.510   -9.900     0.76    0.000    0.000       30        8     2033  Maize_Short_Soroca_10May_Optimal_26_MOHC.PRM
  Tot(54)       10        5     2034    286.2    503.2   1320.9   436.00      0.0    266.2     20.0     14.0      0.0    129.3       70    316.6    314.2       97     0.000     0.000     0.000     0.000      107        0        0        0       10        1        2    23.015       95     40.0    9.204   -9.900     2.06    0.000    0.000       30        8     2034  Maize_Short_Soroca_10May_Optimal_26_MOHC.PRM
  Tot(55)       10        5     2035    158.1    638.3   1518.2   437.00      0.0    151.6      6.5     13.8      0.0    131.7       43    223.7    226.1       73     0.000     0.000     0.000     0.000       96        0        0        0        3       20       21    12.409       50     32.0    3.976   -9.900     1.12    0.000    0.000       30        8     2035  Maize_Short_Soroca_10May_Optimal_26_MOHC.PRM
  Tot(56)       10        5     2036    113.9    726.9   1546.4   438.00      0.0    113.0      0.9      0.0      0.0    112.9       30    211.4    211.4       69     0.000     0.000     0.000     0.000       91        0        0        0        6       19       23    10.563       43     26.8    2.830   -9.900     0.91    0.000    0.000       30        8     2036  Maize_Short_Soroca_10May_Optimal_26_MOHC.PRM
  Tot(57)       10        5     2037     92.9    708.8   1597.1   438.00      0.0     92.9      0.0      0.0      0.0    119.2       28    177.5    177.5       71     0.000     0.000     0.000     0.000       86        0        0        0        3       29       21     8.868       36     17.1    1.516   -9.900     0.52    0.000    0.000       30        8     2037  Maize_Short_Soroca_10May_Optimal_26_MOHC.PRM
  Tot(58)       10        5     2038    257.0    520.9   1324.3   439.00      0.0    225.6     31.4     64.3      0.0    129.8       72    257.4    257.2       79     0.000     0.000     0.000     0.000      107        0        0        0        9        2       17    17.611       72     38.9    6.847   -9.900     1.77    0.000    0.000       30        8     2038  Maize_Short_Soroca_10May_Optimal_26_MOHC.PRM
  Tot(59)       10        5     2039     91.1    693.6   1596.0   440.00      0.0     90.7      0.4      0.0      0.0    115.3       29    170.2    170.4       69     0.000     0.000     0.000     0.000       84        0        0        0        4       29       22     8.583       35     20.5    1.756   -9.900     0.65    0.000    0.000       30        8     2039  Maize_Short_Soroca_10May_Optimal_26_MOHC.PRM
  Tot(60)       10        5     2040     48.5    709.0   1497.1   440.00      0.0     48.5      0.0      0.0      0.0     74.6       17    171.3    171.3       71     0.000     0.000     0.000     0.000       87        0        0        0        5       31       21     8.726       35     23.6    2.057   -9.900     0.86    0.000    0.000       30        8     2040  Maize_Short_Soroca_10May_Optimal_26_MOHC.PRM
  Tot(61)       10        5     2041     97.6    686.6   1486.5   441.00      0.0     97.4      0.2      0.0      0.0    110.6       30    197.3    197.3       72     0.000     0.000     0.000     0.000       89        0        0        0       10       25       21    10.414       42     25.7    2.681   -9.900     0.88    0.000    0.000       30        8     2041  Maize_Short_Soroca_10May_Optimal_26_MOHC.PRM
  Tot(62)       10        5     2042    245.5    538.0   1360.2   441.00      0.0    206.2     39.3     51.3      0.0    107.3       51    267.6    267.0       81     0.000     0.000     0.000     0.000      107        0        0        0       11       14       15    17.893       73     39.9    7.132   -9.900     1.90    0.000    0.000       30        8     2042  Maize_Short_Soroca_10May_Optimal_26_MOHC.PRM
  Tot(63)       10        5     2043    134.1    694.2   1623.9   441.00      0.0    131.1      3.0      1.0      0.0    144.2       40    202.1    202.7       69     0.000     0.000     0.000     0.000       92        0        0        0        3       19       22    11.177       45     28.3    3.158   -9.900     0.92    0.000    0.000       30        8     2043  Maize_Short_Soroca_10May_Optimal_26_MOHC.PRM
  Tot(64)       10        5     2044    225.2    584.7   1437.7   442.00      0.0    216.5      8.7      9.1      0.0    134.3       65    297.8    297.6       81     0.000     0.000     0.000     0.000      107        0        0        0        7        3       16    18.205       74     39.1    7.114   -9.900     1.65    0.000    0.000       30        8     2044  Maize_Short_Soroca_10May_Optimal_26_MOHC.PRM
  Tot(65)       10        5     2045    245.0    581.9   1431.6   442.00      0.0    211.3     33.7     51.3      0.0    143.5       58    229.0    229.3       74     0.000     0.000     0.000     0.000      103        0        0        0        3        9       20    14.812       60     38.7    5.739   -9.900     1.56    0.000    0.000       30        8     2045  Maize_Short_Soroca_10May_Optimal_26_MOHC.PRM
  Tot(66)       10        5     2046     51.9    805.2   1773.4   442.00      0.0     51.9      0.0      0.0      0.0     91.2       16    149.1    149.1       70     0.000     0.000     0.000     0.000       80        0        0        0        1       38       21     6.259       25      7.6    0.478   -9.900     0.21    0.000    0.000       30        8     2046  Maize_Short_Soroca_10May_Optimal_26_MOHC.PRM
  Tot(67)       10        5     2047    154.8    646.8   1528.5   442.00      0.0    149.8      5.0     14.5      0.0    128.2       42    229.0    229.0       73     0.000     0.000     0.000     0.000       97        0        0        0        6       13       21    13.238       53     32.9    4.356   -9.900     1.23    0.000    0.000       30        8     2047  Maize_Short_Soroca_10May_Optimal_26_MOHC.PRM
  Tot(68)       10        5     2048    211.1    552.8   1375.3   442.00      0.0    206.2      4.9      8.3      0.0    131.8       59    276.5    275.2       84     0.000     0.000     0.000     0.000      107        0        0        0        9        8       12    17.873       75     40.1    7.162   -9.900     1.75    0.000    0.000       30        8     2048  Maize_Short_Soroca_10May_Optimal_26_MOHC.PRM
  Tot(69)       10        5     2049    274.0    559.6   1475.3   443.00      0.0    254.4     19.6      0.0      0.0    112.7       48    325.8    324.9       97     0.000     0.000     0.000     0.000      107        0        0        0        6        6        2    21.872       91     40.1    8.778   -9.900     2.00    0.000    0.000       30        8     2049  Maize_Short_Soroca_10May_Optimal_26_MOHC.PRM
  Tot(70)       10        5     2050    195.9    598.5   1437.8   443.00      0.0    193.4      2.5      4.0      0.0    138.5       55    241.0    243.1       74     0.000     0.000     0.000     0.000      107        0        0        0        8        9       19    13.570       56     26.5    3.596   -9.900     0.95    0.000    0.000       30        8     2050  Maize_Short_Soroca_10May_Optimal_26_MOHC.PRM
  Tot(71)       10        5     2051    198.0    634.1   1522.3   443.00      0.0    191.2      6.8     13.4      0.0    139.3       53    257.8    257.8       76     0.000     0.000     0.000     0.000      101        0        0        0        7        6       21    14.490       59     36.5    5.284   -9.900     1.35    0.000    0.000       30        8     2051  Maize_Short_Soroca_10May_Optimal_26_MOHC.PRM
  Tot(72)       10        5     2052    175.8    589.5   1506.2   443.00      0.0    175.4      0.4      0.0      0.0    128.5       54    270.4    270.4       80     0.000     0.000     0.000     0.000      107        0        0        0        5        9       19    16.660       67     39.0    6.500   -9.900     1.63    0.000    0.000       30        8     2052  Maize_Short_Soroca_10May_Optimal_26_MOHC.PRM
  Tot(73)       10        5     2053    134.4    625.1   1530.1   443.00      0.0    134.4      0.0      0.0      0.0    138.4       43    212.3    212.3       74     0.000     0.000     0.000     0.000       98        0        0        0        4       17       20    12.955       53     34.1    4.422   -9.900     1.28    0.000    0.000       30        8     2053  Maize_Short_Soroca_10May_Optimal_26_MOHC.PRM
  Tot(74)       10        5     2054    190.8    561.3   1440.6   443.00      0.0    174.0     16.8     26.5      0.0    142.5       58    224.2    223.8       74     0.000     0.000     0.000     0.000      107        0        0        0        3       16       21    14.779       60     39.6    5.850   -9.900     1.60    0.000    0.000       30        8     2054  Maize_Short_Soroca_10May_Optimal_26_MOHC.PRM
  Tot(75)       10        5     2055    171.0    599.3   1473.0   443.00      0.0    159.3     11.7     28.6      0.0    129.8       44    216.4    216.3       73     0.000     0.000     0.000     0.000      107        0        0        0        9       27       21    13.231       53     39.8    5.264   -9.900     1.52    0.000    0.000       30        8     2055  Maize_Short_Soroca_10May_Optimal_26_MOHC.PRM
  Tot(76)       10        5     2056    152.6    653.4   1531.8   442.00      0.0    147.2      5.4      0.0      0.0    116.3       40    239.8    240.3       73     0.000     0.000     0.000     0.000       99        0        0        0        2       10       21    13.892       56     34.6    4.800   -9.900     1.39    0.000    0.000       30        8     2056  Maize_Short_Soroca_10May_Optimal_26_MOHC.PRM
  Tot(77)       10        5     2057    182.9    651.9   1526.2   442.00      0.0    176.0      6.9      7.0      0.0    123.4       50    274.1    273.9       70     0.000     0.000     0.000     0.000      107        0        0        0        9        5       22    16.027       65     38.2    6.129   -9.900     1.54    0.000    0.000       30        8     2057  Maize_Short_Soroca_10May_Optimal_26_MOHC.PRM
  Tot(78)       10        5     2058     89.1    659.6   1518.8   442.00      0.0     82.0      7.1     11.4      0.0     88.8       26    201.2    201.4       69     0.000     0.000     0.000     0.000      102        0        0        0        6       29       25    11.152       45     38.0    4.241   -9.900     1.47    0.000    0.000       30        8     2058  Maize_Short_Soroca_10May_Optimal_26_MOHC.PRM
  Tot(79)       10        5     2059    176.2    623.3   1521.8   442.00      0.0    170.6      5.6      2.7      0.0    127.8       42    252.6    251.8       77     0.000     0.000     0.000     0.000      107        0        0        0        7       29       17    14.663       60     40.1    5.877   -9.900     1.54    0.000    0.000       30        8     2059  Maize_Short_Soroca_10May_Optimal_26_MOHC.PRM
  Tot(80)       10        5     2060    220.2    568.7   1379.1   442.00      0.0    183.7     36.5     69.8      0.0    107.0       48    232.7    233.5       73     0.000     0.000     0.000     0.000      107        0        0        0        9       13       24    14.603       59     38.6    5.630   -9.900     1.66    0.000    0.000       30        8     2060  Maize_Short_Soroca_10May_Optimal_26_MOHC.PRM
  Tot(81)       10        5     2061    245.9    597.4   1450.6   441.00      0.0    184.0     61.9     76.8      0.0    109.4       43    222.5    222.5       71     0.000     0.000     0.000     0.000      103        0        0        0        7       11       25    13.821       56     37.9    5.232   -9.900     1.59    0.000    0.000       30        8     2061  Maize_Short_Soroca_10May_Optimal_26_MOHC.PRM
  Tot(82)       10        5     2062    153.4    620.0   1487.3   441.00      0.0    152.4      1.0      0.0      0.0    116.4       42    256.7    256.0       74     0.000     0.000     0.000     0.000      107        0        0        0        6       19       19    15.532       63     39.8    6.182   -9.900     1.66    0.000    0.000       30        8     2062  Maize_Short_Soroca_10May_Optimal_26_MOHC.PRM
  Tot(83)       10        5     2063    185.5    595.3   1477.7   441.00      0.0    180.2      5.3     12.6      0.0    133.1       50    215.1    215.8       71     0.000     0.000     0.000     0.000       95        0        0        0        7       16       22    12.524       51     30.8    3.863   -9.900     1.15    0.000    0.000       30        8     2063  Maize_Short_Soroca_10May_Optimal_26_MOHC.PRM
  Tot(84)       10        5     2064    166.0    656.5   1562.9   440.00      0.0    158.9      7.1      1.1      0.0    131.1       40    197.9    197.9       68     0.000     0.000     0.000     0.000       91        0        0        0        4       18       23    11.158       45     26.9    3.002   -9.900     0.96    0.000    0.000       30        8     2064  Maize_Short_Soroca_10May_Optimal_26_MOHC.PRM
  Tot(85)       10        5     2065     76.7    694.5   1560.4   440.00      0.0     76.7      0.0      0.0      0.0    105.3       24    164.0    164.0       71     0.000     0.000     0.000     0.000       86        0        0        0        2       33       21     7.603       31     21.8    1.654   -9.900     0.64    0.000    0.000       30        8     2065  Maize_Short_Soroca_10May_Optimal_26_MOHC.PRM
  Tot(86)       10        5     2066    272.0    583.7   1471.2   440.00      0.0    230.9     41.1      6.1      0.0    128.2       52    270.3    269.0       80     0.000     0.000     0.000     0.000      107        0        0        0        4       10       13    16.850       69     39.6    6.678   -9.900     1.68    0.000    0.000       30        8     2066  Maize_Short_Soroca_10May_Optimal_26_MOHC.PRM
  Tot(87)       10        5     2067    189.8    594.7   1395.9   439.00      0.0    176.6     13.2      0.0      0.0    144.7       47    194.7    195.4       72     0.000     0.000     0.000     0.000      107        0        0        0        6       26       16    11.008       45     39.8    4.381   -9.900     1.29    0.000    0.000       30        8     2067  Maize_Short_Soroca_10May_Optimal_26_MOHC.PRM
  Tot(88)       10        5     2068    250.4    528.6   1305.4   439.00      0.0    237.8     12.6      8.9      0.0    116.1       56    313.3    312.0       95     0.000     0.000     0.000     0.000      107        0        0        0        9        3        4    21.986       91     40.0    8.804   -9.900     2.05    0.000    0.000       30        8     2068  Maize_Short_Soroca_10May_Optimal_26_MOHC.PRM
  Tot(89)       10        5     2069    108.9    620.2   1515.9   438.00      0.0    108.3      0.6      2.7      0.0    119.1       37    197.9    199.5       72     0.000     0.000     0.000     0.000      107        0        0        0        4       26       23    11.693       47     38.1    4.454   -9.900     1.41    0.000    0.000       30        8     2069  Maize_Short_Soroca_10May_Optimal_26_MOHC.PRM
  Tot(90)       10        5     2070    253.0    537.7   1361.4   437.00      0.0    212.6     40.4     63.6      0.0    109.2       50    242.0    241.5       79     0.000     0.000     0.000     0.000      107        0        0        0        9       12       15    15.438       63     39.8    6.151   -9.900     1.75    0.000    0.000       30        8     2070  Maize_Short_Soroca_10May_Optimal_26_MOHC.PRM
  Tot(91)       10        5     2071     86.6    600.0   1408.8   437.00      0.0     86.4      0.2      0.0      0.0    106.6       32    191.0    191.8       75     0.000     0.000     0.000     0.000       95        0        0        0        4       26       19    11.405       47     31.8    3.626   -9.900     1.24    0.000    0.000       30        8     2071  Maize_Short_Soroca_10May_Optimal_26_MOHC.PRM
  Tot(92)       10        5     2072     86.1    592.4   1366.4   436.00      0.0     79.6      6.5     11.8      0.0     85.6       29    197.9    197.7       71     0.000     0.000     0.000     0.000      107        0        0        0        8       27       24    11.820       48     39.6    4.687   -9.900     1.65    0.000    0.000       30        8     2072  Maize_Short_Soroca_10May_Optimal_26_MOHC.PRM
  Tot(93)       10        5     2073    109.3    699.9   1633.8   436.00      0.0    107.0      2.3      0.3      0.0    133.7       32    173.9    174.0       72     0.000     0.000     0.000     0.000       86        0        0        0        1       29       21     9.009       36     22.6    2.038   -9.900     0.67    0.000    0.000       30        8     2073  Maize_Short_Soroca_10May_Optimal_26_MOHC.PRM
  Tot(94)       10        5     2074    140.9    575.9   1268.0   435.00      0.0    138.1      2.8      4.0      0.0    115.2       51    244.4    244.4       76     0.000     0.000     0.000     0.000      106        0        0        0       15       10       21    15.160       64     38.8    5.887   -9.900     1.64    0.000    0.000       30        8     2074  Maize_Short_Soroca_10May_Optimal_26_MOHC.PRM
  Tot(95)       10        5     2075    205.6    544.5   1379.3   435.00      0.0    191.0     14.6     20.5      0.0    139.0       68    247.0    246.4       75     0.000     0.000     0.000     0.000      107        0        0        0        8        6       18    16.444       68     39.1    6.438   -9.900     1.67    0.000    0.000       30        8     2075  Maize_Short_Soroca_10May_Optimal_26_MOHC.PRM
  Tot(96)       10        5     2076    109.6    700.2   1624.8   434.00      0.0    108.4      1.2      1.3      0.0    126.4       32    188.8    189.4       71     0.000     0.000     0.000     0.000       88        0        0        0        4       27       21     9.953       40     24.4    2.429   -9.900     0.78    0.000    0.000       30        8     2076  Maize_Short_Soroca_10May_Optimal_26_MOHC.PRM
  Tot(97)       10        5     2077     98.4    716.9   1521.8   433.00      0.0     98.0      0.4      0.2      0.0    127.8       29    166.5    166.5       70     0.000     0.000     0.000     0.000       84        0        0        0        4       31       22     8.074       33     20.6    1.660   -9.900     0.57    0.000    0.000       30        8     2077  Maize_Short_Soroca_10May_Optimal_26_MOHC.PRM
  Tot(98)       10        5     2078    192.6    597.1   1530.3   433.00      0.0    187.8      4.8      9.3      0.0    153.8       60    249.2    249.2       78     0.000     0.000     0.000     0.000      104        0        0        0        3       10       20    15.485       62     38.7    5.992   -9.900     1.49    0.000    0.000       30        8     2078  Maize_Short_Soroca_10May_Optimal_26_MOHC.PRM
  Tot(99)       10        5     2079    105.6    611.8   1430.9   432.00      0.0    105.2      0.4      0.0      0.0    102.4       37    224.4    224.4       74     0.000     0.000     0.000     0.000       99        0        0        0        9       12       21    13.408       55     34.8    4.671   -9.900     1.44    0.000    0.000       30        8     2079  Maize_Short_Soroca_10May_Optimal_26_MOHC.PRM
 Tot(100)       10        5     2080    150.6    618.2   1435.4   432.00      0.0    136.5     14.1     21.5      0.0    117.6       41    214.9    214.9       72     0.000     0.000     0.000     0.000       94        0        0        0        8       17       21    12.184       50     30.4    3.699   -9.900     1.13    0.000    0.000       30        8     2080  Maize_Short_Soroca_10May_Optimal_26_MOHC.PRM
 Tot(101)       10        5     2081    105.3    707.9   1663.1   431.00      0.0    104.0      1.3      0.9      0.0    123.5       30    176.7    176.7       69     0.000     0.000     0.000     0.000       86        0        0        0        1       28       22     9.075       37     22.3    2.025   -9.900     0.70    0.000    0.000       30        8     2081  Maize_Short_Soroca_10May_Optimal_26_MOHC.PRM
 Tot(102)       10        5     2082    101.7    717.3   1622.6   431.00      0.0     99.0      2.7      9.1      0.0    118.2       28    179.1    179.1       71     0.000     0.000     0.000     0.000       88        0        0        0        4       28       22     9.602       39     24.3    2.336   -9.900     0.79    0.000    0.000       30        8     2082  Maize_Short_Soroca_10May_Optimal_26_MOHC.PRM
 Tot(103)       10        5     2083    180.3    638.1   1482.0   430.00      0.0    170.6      9.7     25.1      0.0    142.0       44    197.1    197.1       69     0.000     0.000     0.000     0.000       89        0        0        0        6       21       22    10.402       42     25.5    2.657   -9.900     0.83    0.000    0.000       30        8     2083  Maize_Short_Soroca_10May_Optimal_26_MOHC.PRM
 Tot(104)       10        5     2084    122.0    665.6   1581.4   429.00      0.0    121.8      0.2      0.0      0.0    122.0       37    213.5    213.5       71     0.000     0.000     0.000     0.000       92        0        0        0        7       18       22    11.327       46     28.0    3.173   -9.900     0.96    0.000    0.000       30        8     2084  Maize_Short_Soroca_10May_Optimal_26_MOHC.PRM
 Tot(105)       10        5     2085    131.4    639.6   1520.5   429.00      0.0    127.3      4.1      7.4      0.0    130.5       42    208.3    208.3       69     0.000     0.000     0.000     0.000       99        0        0        0        5       22       25    11.729       48     35.0    4.103   -9.900     1.22    0.000    0.000       30        8     2085  Maize_Short_Soroca_10May_Optimal_26_MOHC.PRM
 Tot(106)       10        5     2086    134.4    615.6   1447.3   428.00      0.0    132.4      2.0      0.2      0.0    105.5       37    246.1    245.7       76     0.000     0.000     0.000     0.000      107        0        0        0        5       10       19    14.986       61     39.0    5.848   -9.900     1.66    0.000    0.000       30        8     2086  Maize_Short_Soroca_10May_Optimal_26_MOHC.PRM
 Tot(107)       10        5     2087    160.4    662.3   1614.9   428.00      0.0    157.5      2.9      0.0      0.0    125.0       33    236.5    235.7       79     0.000     0.000     0.000     0.000      107        0        0        0        1       29       14    13.098       53     39.6    5.184   -9.900     1.43    0.000    0.000       30        8     2087  Maize_Short_Soroca_10May_Optimal_26_MOHC.PRM
 Tot(108)       10        5     2088    283.8    545.1   1353.1   427.00      0.0    258.0     25.8     32.4      0.0    138.5       70    263.3    263.9       77     0.000     0.000     0.000     0.000      107        0        0        0       11        5       15    16.226       68     38.9    6.306   -9.900     1.57    0.000    0.000       30        8     2088  Maize_Short_Soroca_10May_Optimal_26_MOHC.PRM
 Tot(109)       10        5     2089    238.3    572.0   1483.1   427.00      0.0    234.5      3.8      0.0      0.0    160.5       64    285.7    285.5       86     0.000     0.000     0.000     0.000      107        0        0        0        2        8       11    18.540       76     39.7    7.358   -9.900     1.65    0.000    0.000       30        8     2089  Maize_Short_Soroca_10May_Optimal_26_MOHC.PRM
 Tot(110)       10        5     2090    135.9    700.8   1649.7   426.00      0.0    135.1      0.8      0.9      0.0    145.2       35    185.7    186.4       73     0.000     0.000     0.000     0.000       88        0        0        0        2       27       21     9.543       39     24.6    2.348   -9.900     0.73    0.000    0.000       30        8     2090  Maize_Short_Soroca_10May_Optimal_26_MOHC.PRM
 Tot(111)       10        5     2091    247.7    518.1   1387.8   425.00      0.0    236.8     10.9      8.3      0.0    118.0       49    271.5    270.3       92     0.000     0.000     0.000     0.000      107        0        0        0        5       19        5    19.582       82     40.5    7.926   -9.900     2.03    0.000    0.000       30        8     2091  Maize_Short_Soroca_10May_Optimal_26_MOHC.PRM
 Tot(112)       10        5     2092     99.0    580.0   1378.1   425.00      0.0     98.7      0.3      0.0      0.0     97.6       39    225.2    226.4       75     0.000     0.000     0.000     0.000      103        0        0        0       12        8       20    14.660       61     38.4    5.634   -9.900     1.75    0.000    0.000       30        8     2092  Maize_Short_Soroca_10May_Optimal_26_MOHC.PRM
 Tot(113)       10        5     2093    154.3    602.8   1472.2   424.00      0.0    153.6      0.7      0.0      0.0    132.7       48    215.1    215.1       72     0.000     0.000     0.000     0.000       98        0        0        0        7       13       22    13.159       54     33.7    4.440   -9.900     1.31    0.000    0.000       30        8     2093  Maize_Short_Soroca_10May_Optimal_26_MOHC.PRM
 Tot(114)       10        5     2094    103.4    586.1   1387.9   424.00      0.0    100.6      2.8      8.5      0.0     97.2       36    215.4    215.4       76     0.000     0.000     0.000     0.000       99        0        0        0        8       15       21    13.211       54     35.0    4.630   -9.900     1.49    0.000    0.000       30        8     2094  Maize_Short_Soroca_10May_Optimal_26_MOHC.PRM
 Tot(115)       10        5     2095    108.6    682.0   1520.6   423.00      0.0    108.1      0.5      0.0      0.0    113.7       34    210.3    210.3       70     0.000     0.000     0.000     0.000       93        0        0        0        9       17       22    11.475       47     29.0    3.323   -9.900     1.03    0.000    0.000       30        8     2095  Maize_Short_Soroca_10May_Optimal_26_MOHC.PRM
 Tot(116)       10        5     2096    109.7    660.7   1601.3   423.00      0.0    109.7      0.0      0.0      0.0    132.4       32    169.6    169.6       74     0.000     0.000     0.000     0.000       92        0        0        0        2       31       19     9.125       37     28.9    2.636   -9.900     0.90    0.000    0.000       30        8     2096  Maize_Short_Soroca_10May_Optimal_26_MOHC.PRM
 Tot(117)       10        5     2097    183.5    562.0   1465.1   422.00      0.0    180.2      3.3      8.9      0.0    128.2       62    269.9    269.8       78     0.000     0.000     0.000     0.000      107        0        0        0        6        8       17    17.402       71     38.9    6.763   -9.900     1.70    0.000    0.000       30        8     2097  Maize_Short_Soroca_10May_Optimal_26_MOHC.PRM
 Tot(118)       10        5     2098    104.8    585.2   1312.0   422.00      0.0    101.8      3.0      7.4      0.0    108.7       39    208.0    208.1       72     0.000     0.000     0.000     0.000      106        0        0        0       11       25       24    12.923       53     39.1    5.048   -9.900     1.59    0.000    0.000       30        8     2098  Maize_Short_Soroca_10May_Optimal_26_MOHC.PRM
 Tot(119)       10        5     2099     40.3    777.2   1626.4   421.00      0.0     40.3      0.0      0.0      0.0     77.7       15    156.2    156.2       71     0.000     0.000     0.000     0.000       83        0        0        0        7       35       21     7.187       29     20.2    1.449   -9.900     0.63    0.000    0.000       30        8     2099  Maize_Short_Soroca_10May_Optimal_26_MOHC.PRM
