AquaCrop 7.0 (August 2022) - Output created on (date) : 07-07-2023   at (time) : 12:47:31

    RunNr     Day1   Month1    Year1     Rain      ETo       GD     CO2      Irri   Infilt   Runoff    Drain   Upflow        E     E/Ex       Tr      TrW   Tr/Trx    SaltIn   SaltOut    SaltUp  SaltProf     Cycle   SaltStr  FertStr  WeedStr  TempStr   ExpStr   StoStr  BioMass  Brelative   HI    Y(dry)  Y(fresh)    WPet      Bin     Bout     DayN   MonthN    YearN
                                           mm       mm  degC.day    ppm        mm       mm       mm       mm       mm       mm        %       mm       mm        %    ton/ha    ton/ha    ton/ha    ton/ha      days       %        %        %        %        %        %    ton/ha        %       %    ton/ha   ton/ha    kg/m3   ton/ha   ton/ha
   Tot(1)       10        5     1981    146.8    507.3   1246.2   340.11      0.0    146.0      0.8      0.6      0.0     87.3       40    264.0    266.6       89     0.000     0.000     0.000     0.000      107        0        0        0       10        5        7    18.102       83     39.7    7.190   -9.900     2.05    0.000    0.000       30        8     1981  Maize_Rainfed_Cahul_10May_Optimal_26_MOHC.PRM
   Tot(2)       10        5     1982    232.4    490.7   1271.5   341.22      0.0    231.7      0.7      0.0      0.0    108.4       49    283.2    282.4      100     0.000     0.000     0.000     0.000      107        0        0        0        6        3        0    21.318       95     40.0    8.532   -9.900     2.18    0.000    0.000       30        8     1982  Maize_Rainfed_Cahul_10May_Optimal_26_MOHC.PRM
   Tot(3)       10        5     1983    291.5    495.5   1304.3   342.84      0.0    266.0     25.5     27.9      0.0    106.3       49    289.8    289.9      100     0.000     0.000     0.000     0.000      107        0        0        0        6        3        0    21.460       96     40.1    8.602   -9.900     2.17    0.000    0.000       30        8     1983  Maize_Rainfed_Cahul_10May_Optimal_26_MOHC.PRM
   Tot(4)       10        5     1984    204.1    468.4   1129.3   344.40      0.0    199.7      4.4     10.1      0.0    129.7       68    261.6    262.2       97     0.000     0.000     0.000     0.000      107        0        0        0       12        2        3    19.707       93     40.1    7.898   -9.900     2.02    0.000    0.000       30        8     1984  Maize_Rainfed_Cahul_10May_Optimal_26_MOHC.PRM
   Tot(5)       10        5     1985    291.0    486.1   1240.6   345.87      0.0    263.9     27.1     43.7      0.0    120.5       60    283.4    282.7       99     0.000     0.000     0.000     0.000      107        0        0        0        9        1        1    20.764       96     40.0    8.306   -9.900     2.06    0.000    0.000       30        8     1985  Maize_Rainfed_Cahul_10May_Optimal_26_MOHC.PRM
   Tot(6)       10        5     1986    174.4    542.4   1329.9   347.19      0.0    173.4      1.0      0.0      0.0    112.4       48    260.4    260.4       84     0.000     0.000     0.000     0.000      107        0        0        0        5        7       12    17.468       78     39.5    6.899   -9.900     1.85    0.000    0.000       30        8     1986  Maize_Rainfed_Cahul_10May_Optimal_26_MOHC.PRM
   Tot(7)       10        5     1987    239.8    498.8   1219.8   348.98      0.0    231.7      8.1      0.0      0.0     99.8       51    307.4    307.6      100     0.000     0.000     0.000     0.000      107        0        0        0       12        4        0    21.039       95     40.1    8.431   -9.900     2.07    0.000    0.000       30        8     1987  Maize_Rainfed_Cahul_10May_Optimal_26_MOHC.PRM
   Tot(8)       10        5     1988    149.3    506.3   1314.4   351.45      0.0    147.7      1.6      4.3      0.0    135.3       65    229.6    231.6       80     0.000     0.000     0.000     0.000      106        0        0        0        6        9       19    14.949       65     39.1    5.847   -9.900     1.60    0.000    0.000       30        8     1988  Maize_Rainfed_Cahul_10May_Optimal_26_MOHC.PRM
   Tot(9)       10        5     1989    210.2    497.8   1242.2   352.89      0.0    209.8      0.4      0.0      0.0    104.9       52    296.0    295.1       96     0.000     0.000     0.000     0.000      107        0        0        0       13        5        3    20.814       92     40.2    8.361   -9.900     2.09    0.000    0.000       30        8     1989  Maize_Rainfed_Cahul_10May_Optimal_26_MOHC.PRM
  Tot(10)       10        5     1990    134.5    533.2   1221.9   354.16      0.0    134.2      0.3      0.0      0.0    125.0       53    229.3    230.0       79     0.000     0.000     0.000     0.000      107        0        0        0       13       14       19    14.844       65     39.7    5.899   -9.900     1.66    0.000    0.000       30        8     1990  Maize_Rainfed_Cahul_10May_Optimal_26_MOHC.PRM
  Tot(11)       10        5     1991    366.2    440.5   1237.7   355.48      0.0    323.8     42.4     60.6      0.0    117.6       74    294.6    292.7      100     0.000     0.000     0.000     0.000      107        0        0        0       14        0        0    22.523       98     40.0    9.015   -9.900     2.19    0.000    0.000       30        8     1991  Maize_Rainfed_Cahul_10May_Optimal_26_MOHC.PRM
  Tot(12)       10        5     1992    169.4    527.1   1280.4   356.27      0.0    168.9      0.5      0.0      0.0    131.2       66    258.3    259.7       79     0.000     0.000     0.000     0.000      107        0        0        0       13        7       16    16.757       73     39.2    6.568   -9.900     1.69    0.000    0.000       30        8     1992  Maize_Rainfed_Cahul_10May_Optimal_26_MOHC.PRM
  Tot(13)       10        5     1993    217.3    512.9   1209.9   356.95      0.0    204.6     12.7     26.5      0.0    127.5       62    261.5    261.9       86     0.000     0.000     0.000     0.000      107        0        0        0       10        5       10    17.461       81     39.6    6.909   -9.900     1.78    0.000    0.000       30        8     1993  Maize_Rainfed_Cahul_10May_Optimal_26_MOHC.PRM
  Tot(14)       10        5     1994    230.6    531.5   1344.3   358.63      0.0    214.7     15.9     36.1      0.0    102.3       42    266.9    265.3       87     0.000     0.000     0.000     0.000      107        0        0        0        8       11        9    17.690       76     39.7    7.023   -9.900     1.90    0.000    0.000       30        8     1994  Maize_Rainfed_Cahul_10May_Optimal_26_MOHC.PRM
  Tot(15)       10        5     1995    166.2    526.5   1355.9   360.62      0.0    161.8      4.4      6.3      0.0    104.4       46    262.7    263.9       85     0.000     0.000     0.000     0.000      107        0        0        0        6       10       13    17.278       74     39.6    6.842   -9.900     1.86    0.000    0.000       30        8     1995  Maize_Rainfed_Cahul_10May_Optimal_26_MOHC.PRM
  Tot(16)       10        5     1996    151.7    560.7   1318.1   362.37      0.0    142.3      9.4      0.0      0.0    122.4       38    183.8    184.1       79     0.000     0.000     0.000     0.000      107        0        0        0        7       26       15    11.188       49     40.1    4.491   -9.900     1.47    0.000    0.000       30        8     1996  Maize_Rainfed_Cahul_10May_Optimal_26_MOHC.PRM
  Tot(17)       10        5     1997    425.5    464.4   1256.1   363.47      0.0    381.0     44.5      1.2      0.0    127.4       65    282.1    280.8      100     0.000     0.000     0.000     0.000      107        0        0        0       10        1        0    22.374       97     40.0    8.953   -9.900     2.19    0.000    0.000       30        8     1997  Maize_Rainfed_Cahul_10May_Optimal_26_MOHC.PRM
  Tot(18)       10        5     1998    211.3    512.8   1294.4   366.50      0.0    207.5      3.8      4.1      0.0    125.8       64    263.6    264.7       83     0.000     0.000     0.000     0.000      107        0        0        0       11        4       14    17.284       76     39.3    6.787   -9.900     1.74    0.000    0.000       30        8     1998  Maize_Rainfed_Cahul_10May_Optimal_26_MOHC.PRM
  Tot(19)       10        5     1999    300.7    547.1   1408.0   368.14      0.0    285.4     15.3      0.0      0.0    117.5       52    335.4    333.7       99     0.000     0.000     0.000     0.000      107        0        0        0        6        4        1    22.165       94     40.1    8.886   -9.900     1.96    0.000    0.000       30        8     1999  Maize_Rainfed_Cahul_10May_Optimal_26_MOHC.PRM
  Tot(20)       10        5     2000     73.7    615.7   1340.3   369.41      0.0     73.7      0.0      0.0      0.0     84.0       24    206.0    208.3       78     0.000     0.000     0.000     0.000      103        0        0        0        6       24       19    12.360       54     39.4    4.873   -9.900     1.69    0.000    0.000       30        8     2000  Maize_Rainfed_Cahul_10May_Optimal_26_MOHC.PRM
  Tot(21)       10        5     2001    197.2    553.7   1323.0   371.07      0.0    168.5     28.7     19.5      0.0    117.5       51    253.9    253.9       80     0.000     0.000     0.000     0.000      107        0        0        0        8        4       19    16.150       69     38.9    6.288   -9.900     1.69    0.000    0.000       30        8     2001  Maize_Rainfed_Cahul_10May_Optimal_26_MOHC.PRM
  Tot(22)       10        5     2002    295.7    563.3   1406.9   373.16      0.0    258.2     37.5      0.0      0.0    117.1       43    290.9    288.2       93     0.000     0.000     0.000     0.000      107        0        0        0        5       24        3    19.130       80     40.6    7.772   -9.900     1.90    0.000    0.000       30        8     2002  Maize_Rainfed_Cahul_10May_Optimal_26_MOHC.PRM
  Tot(23)       10        5     2003    102.9    601.8   1428.1   375.80      0.0    102.9      0.0      0.0      0.0    102.3       30    219.6    222.2       83     0.000     0.000     0.000     0.000      107        0        0        0        3       24       16    14.206       60     39.8    5.648   -9.900     1.75    0.000    0.000       30        8     2003  Maize_Rainfed_Cahul_10May_Optimal_26_MOHC.PRM
  Tot(24)       10        5     2004    274.3    515.6   1240.7   377.49      0.0    268.6      5.7      2.4      0.0    134.9       63    303.6    300.7       96     0.000     0.000     0.000     0.000      107        0        0        0       11       12        3    20.886       89     40.1    8.371   -9.900     1.91    0.000    0.000       30        8     2004  Maize_Rainfed_Cahul_10May_Optimal_26_MOHC.PRM
  Tot(25)       10        5     2005    357.3    523.6   1316.6   379.80      0.0    344.1     13.2      4.4      0.0    141.7       67    327.0    326.7      100     0.000     0.000     0.000     0.000      107        0        0        0        7        3        0    22.816       96     40.0    9.134   -9.900     1.95    0.000    0.000       30        8     2005  Maize_Rainfed_Cahul_10May_Optimal_26_MOHC.PRM
  Tot(26)       10        5     2006    170.7    575.9   1338.1   381.90      0.0    162.8      7.9     12.6      0.0    120.1       44    227.5    230.1       77     0.000     0.000     0.000     0.000      107        0        0        0        7       20       17    13.994       59     39.8    5.572   -9.900     1.60    0.000    0.000       30        8     2006  Maize_Rainfed_Cahul_10May_Optimal_26_MOHC.PRM
  Tot(27)       10        5     2007    117.6    680.9   1520.4   383.77      0.0    116.4      1.2      0.0      0.0    111.6       28    211.6    211.7       74     0.000     0.000     0.000     0.000      107        0        0        0        1       28       20    11.118       46     39.8    4.427   -9.900     1.37    0.000    0.000       30        8     2007  Maize_Rainfed_Cahul_10May_Optimal_26_MOHC.PRM
  Tot(28)       10        5     2008    142.7    609.1   1384.2   385.59      0.0    142.7      0.0      0.0      0.0    108.3       37    245.8    246.0       77     0.000     0.000     0.000     0.000      107        0        0        0        4       20       20    14.555       61     39.3    5.724   -9.900     1.62    0.000    0.000       30        8     2008  Maize_Rainfed_Cahul_10May_Optimal_26_MOHC.PRM
  Tot(29)       10        5     2009    135.2    618.6   1416.0   387.37      0.0    134.6      0.6      0.0      0.0     93.0       31    262.3    262.5       82     0.000     0.000     0.000     0.000      107        0        0        0        3       11       18    15.434       64     39.3    6.069   -9.900     1.71    0.000    0.000       30        8     2009  Maize_Rainfed_Cahul_10May_Optimal_26_MOHC.PRM
  Tot(30)       10        5     2010    257.4    553.9   1446.3   389.85      0.0    240.0     17.4      3.4      0.0    127.9       57    317.9    317.1       93     0.000     0.000     0.000     0.000      107        0        0        0        7        2        6    20.943       89     39.9    8.351   -9.900     1.87    0.000    0.000       30        8     2010  Maize_Rainfed_Cahul_10May_Optimal_26_MOHC.PRM
  Tot(31)       10        5     2011    170.0    575.1   1394.0   391.63      0.0    165.7      4.3      2.2      0.0    119.0       49    268.7    268.9       80     0.000     0.000     0.000     0.000      107        0        0        0        4        6       15    17.366       74     39.5    6.860   -9.900     1.77    0.000    0.000       30        8     2011  Maize_Rainfed_Cahul_10May_Optimal_26_MOHC.PRM
  Tot(32)       10        5     2012    235.5    644.6   1476.6   393.82      0.0    228.5      7.0      8.0      0.0    164.6       56    260.6    259.8       75     0.000     0.000     0.000     0.000      107        0        0        0        5       18       19    14.390       60     39.3    5.650   -9.900     1.33    0.000    0.000       30        8     2012  Maize_Rainfed_Cahul_10May_Optimal_26_MOHC.PRM
  Tot(33)       10        5     2013    245.8    572.9   1442.3   396.48      0.0    233.1     12.7      0.0      0.0    127.3       53    300.6    300.1       87     0.000     0.000     0.000     0.000      107        0        0        0        3        5       10    19.417       80     39.4    7.649   -9.900     1.79    0.000    0.000       30        8     2013  Maize_Rainfed_Cahul_10May_Optimal_26_MOHC.PRM
  Tot(34)       10        5     2014    231.2    553.0   1388.0   398.55      0.0    226.5      4.7      7.4      0.0    144.9       67    291.8    292.9       85     0.000     0.000     0.000     0.000      107        0        0        0        4        8       11    18.972       79     39.8    7.548   -9.900     1.73    0.000    0.000       30        8     2014  Maize_Rainfed_Cahul_10May_Optimal_26_MOHC.PRM
  Tot(35)       10        5     2015    138.4    632.1   1420.5   401.00      0.0    136.9      1.5      0.0      0.0    101.6       33    247.4    247.7       78     0.000     0.000     0.000     0.000      107        0        0        0        4       12       15    14.672       61     39.4    5.785   -9.900     1.66    0.000    0.000       30        8     2015  Maize_Rainfed_Cahul_10May_Optimal_26_MOHC.PRM
  Tot(36)       10        5     2016    181.4    575.2   1403.1   403.00      0.0    180.6      0.8      0.8      0.0    153.5       64    243.7    243.8       75     0.000     0.000     0.000     0.000      107        0        0        0        8       12       22    14.566       60     39.3    5.731   -9.900     1.44    0.000    0.000       30        8     2016  Maize_Rainfed_Cahul_10May_Optimal_26_MOHC.PRM
  Tot(37)       10        5     2017    261.1    575.3   1379.0   405.00      0.0    232.5     28.6      1.2      0.0    102.8       45    338.4    337.9       93     0.000     0.000     0.000     0.000      107        0        0        0        6        5        6    21.231       88     40.0    8.502   -9.900     1.93    0.000    0.000       30        8     2017  Maize_Rainfed_Cahul_10May_Optimal_26_MOHC.PRM
  Tot(38)       10        5     2018    166.6    568.1   1494.6   408.00      0.0    161.0      5.6      0.0      0.0     89.0       33    288.0    287.7       90     0.000     0.000     0.000     0.000      107        0        0        0        2       10        7    20.089       83     40.0    8.034   -9.900     2.13    0.000    0.000       30        8     2018  Maize_Rainfed_Cahul_10May_Optimal_26_MOHC.PRM
  Tot(39)       10        5     2019    183.6    599.5   1473.9   410.00      0.0    182.0      1.6      1.9      0.0    159.3       60    246.7    247.7       75     0.000     0.000     0.000     0.000      107        0        0        0        2       15       20    15.318       63     39.1    5.996   -9.900     1.48    0.000    0.000       30        8     2019  Maize_Rainfed_Cahul_10May_Optimal_26_MOHC.PRM
  Tot(40)       10        5     2020     70.1    650.4   1446.8   412.00      0.0     67.9      2.2      2.4      0.0     94.0       27    180.9    181.1       70     0.000     0.000     0.000     0.000       90        0        0        0       11       23       22    10.111       42     26.3    2.664   -9.900     0.99    0.000    0.000       30        8     2020  Maize_Rainfed_Cahul_10May_Optimal_26_MOHC.PRM
  Tot(41)       10        5     2021     51.0    633.8   1451.5   414.00      0.0     51.0      0.0      0.0      0.0     83.1       23    173.3    173.3       71     0.000     0.000     0.000     0.000       89        0        0        0        9       26       21     9.726       40     25.9    2.519   -9.900     1.00    0.000    0.000       30        8     2021  Maize_Rainfed_Cahul_10May_Optimal_26_MOHC.PRM
  Tot(42)       10        5     2022     94.8    650.9   1550.1   417.00      0.0     91.8      3.0      4.6      0.0    105.9       30    193.5    193.5       73     0.000     0.000     0.000     0.000       93        0        0        0        4       22       20    11.352       46     29.8    3.382   -9.900     1.14    0.000    0.000       30        8     2022  Maize_Rainfed_Cahul_10May_Optimal_26_MOHC.PRM
  Tot(43)       10        5     2023     76.3    702.0   1612.9   419.00      0.0     76.3      0.0      0.0      0.0     97.9       22    167.6    167.6       72     0.000     0.000     0.000     0.000       87        0        0        0        2       30       20     8.868       36     23.6    2.097   -9.900     0.81    0.000    0.000       30        8     2023  Maize_Rainfed_Cahul_10May_Optimal_26_MOHC.PRM
  Tot(44)       10        5     2024    175.0    618.9   1509.1   421.00      0.0    159.9     15.1     14.2      0.0    105.2       40    266.1    266.1       78     0.000     0.000     0.000     0.000      107        0        0        0        3        6       20    16.036       65     38.5    6.170   -9.900     1.66    0.000    0.000       30        8     2024  Maize_Rainfed_Cahul_10May_Optimal_26_MOHC.PRM
  Tot(45)       10        5     2025    102.6    639.8   1419.1   423.00      0.0     95.9      6.7      7.3      0.0     83.6       21    159.0    159.0       72     0.000     0.000     0.000     0.000       85        0        0        0        9       33       20     8.091       34     21.7    1.754   -9.900     0.81    0.000    0.000       30        8     2025  Maize_Rainfed_Cahul_10May_Optimal_26_MOHC.PRM
  Tot(46)       10        5     2026     86.3    705.6   1562.4   424.00      0.0     86.1      0.2      0.0      0.0    113.2       27    183.3    183.3       72     0.000     0.000     0.000     0.000       89        0        0        0        6       26       21    10.033       41     25.8    2.590   -9.900     0.88    0.000    0.000       30        8     2026  Maize_Rainfed_Cahul_10May_Optimal_26_MOHC.PRM
  Tot(47)       10        5     2027     99.2    665.2   1511.3   426.00      0.0     94.4      4.8     10.6      0.0     98.4       29    197.2    197.2       70     0.000     0.000     0.000     0.000       90        0        0        0        7       21       22    10.454       42     26.1    2.734   -9.900     0.94    0.000    0.000       30        8     2027  Maize_Rainfed_Cahul_10May_Optimal_26_MOHC.PRM
  Tot(48)       10        5     2028    115.7    680.1   1520.2   428.00      0.0    113.7      2.0      5.3      0.0    117.8       30    172.5    172.5       69     0.000     0.000     0.000     0.000       83        0        0        0        7       30       22     8.308       34     19.9    1.655   -9.900     0.60    0.000    0.000       30        8     2028  Maize_Rainfed_Cahul_10May_Optimal_26_MOHC.PRM
  Tot(49)       10        5     2029    169.8    616.7   1499.4   429.00      0.0    154.6     15.2     30.0      0.0    127.7       46    218.7    218.7       73     0.000     0.000     0.000     0.000       97        0        0        0        7       11       21    13.244       54     33.0    4.365   -9.900     1.27    0.000    0.000       30        8     2029  Maize_Rainfed_Cahul_10May_Optimal_26_MOHC.PRM
  Tot(50)       10        5     2030    139.7    731.2   1649.1   431.00      0.0    124.9     14.8      0.7      0.0     99.8       28    245.3    245.3       71     0.000     0.000     0.000     0.000       96        0        0        0        4       12       22    12.397       50     21.0    2.607   -9.900     0.76    0.000    0.000       30        8     2030  Maize_Rainfed_Cahul_10May_Optimal_26_MOHC.PRM
  Tot(51)       10        5     2031     95.7    626.0   1489.4   432.00      0.0     94.9      0.8      0.0      0.0    109.1       33    201.2    201.2       74     0.000     0.000     0.000     0.000       95        0        0        0        5       20       21    12.053       49     31.3    3.772   -9.900     1.26    0.000    0.000       30        8     2031  Maize_Rainfed_Cahul_10May_Optimal_26_MOHC.PRM
  Tot(52)       10        5     2032     27.9    757.1   1690.4   433.00      0.0     27.4      0.5      0.8      0.0     67.3       13    154.4    154.4       72     0.000     0.000     0.000     0.000       84        0        0        0        0       35       20     7.356       30     20.7    1.522   -9.900     0.70    0.000    0.000       30        8     2032  Maize_Rainfed_Cahul_10May_Optimal_26_MOHC.PRM
  Tot(53)       10        5     2033    103.9    699.2   1621.5   435.00      0.0    103.8      0.1      0.0      0.0    115.5       31    201.7    201.7       70     0.000     0.000     0.000     0.000       91        0        0        0        2       20       22    10.739       44     27.1    2.910   -9.900     0.94    0.000    0.000       30        8     2033  Maize_Rainfed_Cahul_10May_Optimal_26_MOHC.PRM
  Tot(54)       10        5     2034     88.9    620.2   1463.0   436.00      0.0     88.6      0.3      1.3      0.0    100.0       30    202.9    202.9       77     0.000     0.000     0.000     0.000       96        0        0        0        8       23       19    12.126       49     32.6    3.958   -9.900     1.32    0.000    0.000       30        8     2034  Maize_Rainfed_Cahul_10May_Optimal_26_MOHC.PRM
  Tot(55)       10        5     2035     94.7    641.3   1551.6   437.00      0.0     93.6      1.1      1.4      0.0    102.8       31    204.1    204.1       73     0.000     0.000     0.000     0.000       93        0        0        0        3       19       21    11.521       47     29.6    3.409   -9.900     1.13    0.000    0.000       30        8     2035  Maize_Rainfed_Cahul_10May_Optimal_26_MOHC.PRM
  Tot(56)       10        5     2036     94.4    662.6   1524.9   438.00      0.0     94.4      0.0      0.0      0.0    107.3       30    193.1    193.1       70     0.000     0.000     0.000     0.000       92        0        0        0        4       20       22    10.876       44     28.2    3.065   -9.900     1.07    0.000    0.000       30        8     2036  Maize_Rainfed_Cahul_10May_Optimal_26_MOHC.PRM
  Tot(57)       10        5     2037     62.6    652.1   1544.9   438.00      0.0     62.6      0.0      0.0      0.0     90.8       26    176.8    176.8       70     0.000     0.000     0.000     0.000       87        0        0        0        6       26       22     9.521       38     23.4    2.227   -9.900     0.84    0.000    0.000       30        8     2037  Maize_Rainfed_Cahul_10May_Optimal_26_MOHC.PRM
  Tot(58)       10        5     2038    111.5    571.5   1392.8   439.00      0.0    110.0      1.5      0.0      0.0    114.9       46    216.8    216.8       74     0.000     0.000     0.000     0.000      100        0        0        0        7        8       21    14.056       57     35.8    5.025   -9.900     1.52    0.000    0.000       30        8     2038  Maize_Rainfed_Cahul_10May_Optimal_26_MOHC.PRM
  Tot(59)       10        5     2039     68.5    691.2   1569.8   440.00      0.0     67.1      1.4      1.9      0.0     96.7       24    167.8    167.8       70     0.000     0.000     0.000     0.000       85        0        0        0        3       30       22     8.793       35     21.5    1.890   -9.900     0.73    0.000    0.000       30        8     2039  Maize_Rainfed_Cahul_10May_Optimal_26_MOHC.PRM
  Tot(60)       10        5     2040     55.6    675.1   1487.2   440.00      0.0     55.3      0.3      0.0      0.0     68.6       17    188.1    188.0       71     0.000     0.000     0.000     0.000      107        0        0        0        4       34       24    10.170       41     39.5    4.013   -9.900     1.56    0.000    0.000       30        8     2040  Maize_Rainfed_Cahul_10May_Optimal_26_MOHC.PRM
  Tot(61)       10        5     2041    102.2    670.5   1490.5   441.00      0.0    101.5      0.7      1.7      0.0    115.1       34    196.8    196.8       71     0.000     0.000     0.000     0.000       89        0        0        0       10       23       22    10.473       42     25.7    2.687   -9.900     0.88    0.000    0.000       30        8     2041  Maize_Rainfed_Cahul_10May_Optimal_26_MOHC.PRM
  Tot(62)       10        5     2042     73.1    584.6   1413.0   441.00      0.0     72.8      0.3      1.8      0.0     92.0       31    196.2    196.2       74     0.000     0.000     0.000     0.000       99        0        0        0        8       25       22    11.938       49     35.5    4.232   -9.900     1.48    0.000    0.000       30        8     2042  Maize_Rainfed_Cahul_10May_Optimal_26_MOHC.PRM
  Tot(63)       10        5     2043     51.6    701.2   1613.1   441.00      0.0     51.6      0.0      0.0      0.0     82.4       20    176.0    176.0       70     0.000     0.000     0.000     0.000       88        0        0        0        3       26       21     9.608       39     24.4    2.346   -9.900     0.92    0.000    0.000       30        8     2043  Maize_Rainfed_Cahul_10May_Optimal_26_MOHC.PRM
  Tot(64)       10        5     2044    167.1    578.2   1429.2   442.00      0.0    165.5      1.6      8.9      0.0    126.0       54    254.0    254.0       79     0.000     0.000     0.000     0.000      104        0        0        0        7        7       20    15.661       63     38.8    6.072   -9.900     1.60    0.000    0.000       30        8     2044  Maize_Rainfed_Cahul_10May_Optimal_26_MOHC.PRM
  Tot(65)       10        5     2045    178.3    664.3   1532.7   442.00      0.0    154.0     24.3     31.4      0.0    140.2       40    192.5    192.5       70     0.000     0.000     0.000     0.000       90        0        0        0        2       22       22    10.923       44     26.5    2.899   -9.900     0.90    0.000    0.000       30        8     2045  Maize_Rainfed_Cahul_10May_Optimal_26_MOHC.PRM
  Tot(66)       10        5     2046     70.2    756.8   1722.0   442.00      0.0     69.7      0.5      1.6      0.0     99.1       20    161.4    161.4       71     0.000     0.000     0.000     0.000       82        0        0        0        1       34       21     7.538       30     10.4    0.784   -9.900     0.31    0.000    0.000       30        8     2046  Maize_Rainfed_Cahul_10May_Optimal_26_MOHC.PRM
  Tot(67)       10        5     2047     84.8    637.7   1578.0   442.00      0.0     82.9      1.9      5.1      0.0    106.5       31    178.8    178.8       71     0.000     0.000     0.000     0.000       90        0        0        0        6       25       21    10.487       42     26.4    2.772   -9.900     0.98    0.000    0.000       30        8     2047  Maize_Rainfed_Cahul_10May_Optimal_26_MOHC.PRM
  Tot(68)       10        5     2048    260.7    606.8   1474.1   442.00      0.0    173.1     87.6     20.6      0.0     92.1       38    286.0    285.8       80     0.000     0.000     0.000     0.000      107        0        0        0        6        6       17    17.174       70     38.9    6.688   -9.900     1.77    0.000    0.000       30        8     2048  Maize_Rainfed_Cahul_10May_Optimal_26_MOHC.PRM
  Tot(69)       10        5     2049     69.3    630.3   1583.2   443.00      0.0     69.3      0.0      0.0      0.0     95.3       26    184.0    184.2       74     0.000     0.000     0.000     0.000       92        0        0        0        3       24       20    10.739       43     28.9    3.103   -9.900     1.14    0.000    0.000       30        8     2049  Maize_Rainfed_Cahul_10May_Optimal_26_MOHC.PRM
  Tot(70)       10        5     2050     79.9    648.8   1514.3   443.00      0.0     79.2      0.7      1.1      0.0     91.5       25    171.8    171.8       70     0.000     0.000     0.000     0.000       88        0        0        0        5       27       21     9.496       39     24.5    2.328   -9.900     0.95    0.000    0.000       30        8     2050  Maize_Rainfed_Cahul_10May_Optimal_26_MOHC.PRM
  Tot(71)       10        5     2051     84.4    655.0   1536.1   443.00      0.0     84.1      0.3      0.0      0.0    100.5       30    197.4    197.4       72     0.000     0.000     0.000     0.000       92        0        0        0        8       20       22    10.996       45     28.3    3.110   -9.900     1.07    0.000    0.000       30        8     2051  Maize_Rainfed_Cahul_10May_Optimal_26_MOHC.PRM
  Tot(72)       10        5     2052     93.6    640.3   1566.9   443.00      0.0     93.6      0.0      0.0      0.0     91.1       29    224.8    224.8       72     0.000     0.000     0.000     0.000      101        0        0        0        4       22       23    12.756       51     36.8    4.691   -9.900     1.49    0.000    0.000       30        8     2052  Maize_Rainfed_Cahul_10May_Optimal_26_MOHC.PRM
  Tot(73)       10        5     2053     80.3    686.6   1614.9   443.00      0.0     80.3      0.0      0.0      0.0     99.1       26    193.0    193.0       72     0.000     0.000     0.000     0.000       90        0        0        0        3       25       21    10.328       41     26.7    2.759   -9.900     0.97    0.000    0.000       30        8     2053  Maize_Rainfed_Cahul_10May_Optimal_26_MOHC.PRM
  Tot(74)       10        5     2054    181.3    641.6   1557.6   443.00      0.0    174.0      7.3      4.0      0.0    133.7       46    258.9    258.9       78     0.000     0.000     0.000     0.000      102        0        0        0        2       11       21    14.646       59     37.7    5.527   -9.900     1.42    0.000    0.000       30        8     2054  Maize_Rainfed_Cahul_10May_Optimal_26_MOHC.PRM
  Tot(75)       10        5     2055    133.7    668.8   1561.4   443.00      0.0    122.0     11.7     34.4      0.0     99.2       25    170.4    170.4       72     0.000     0.000     0.000     0.000       85        0        0        0        8       31       21     8.574       34     21.7    1.863   -9.900     0.71    0.000    0.000       30        8     2055  Maize_Rainfed_Cahul_10May_Optimal_26_MOHC.PRM
  Tot(76)       10        5     2056    111.8    692.9   1586.2   442.00      0.0    111.5      0.3      0.0      0.0    115.2       32    211.9    211.9       72     0.000     0.000     0.000     0.000       93        0        0        0        3       19       21    11.596       47     29.2    3.388   -9.900     1.06    0.000    0.000       30        8     2056  Maize_Rainfed_Cahul_10May_Optimal_26_MOHC.PRM
  Tot(77)       10        5     2057    124.8    650.3   1555.4   442.00      0.0    123.8      1.0      0.0      0.0    102.4       34    244.8    244.8       75     0.000     0.000     0.000     0.000      101        0        0        0        7        7       21    14.436       58     36.5    5.271   -9.900     1.53    0.000    0.000       30        8     2057  Maize_Rainfed_Cahul_10May_Optimal_26_MOHC.PRM
  Tot(78)       10        5     2058     59.2    659.7   1568.8   442.00      0.0     58.6      0.6      0.0      0.0     82.6       21    184.9    184.9       75     0.000     0.000     0.000     0.000       91        0        0        0        6       28       20    10.146       41     27.8    2.817   -9.900     1.07    0.000    0.000       30        8     2058  Maize_Rainfed_Cahul_10May_Optimal_26_MOHC.PRM
  Tot(79)       10        5     2059     73.4    666.7   1539.4   442.00      0.0     73.3      0.1      0.0      0.0     91.7       25    198.7    198.7       71     0.000     0.000     0.000     0.000      101        0        0        0        6       32       24    10.966       44     37.2    4.077   -9.900     1.41    0.000    0.000       30        8     2059  Maize_Rainfed_Cahul_10May_Optimal_26_MOHC.PRM
  Tot(80)       10        5     2060     87.5    597.8   1437.7   442.00      0.0     83.9      3.6      8.0      0.0     95.4       33    195.7    195.7       73     0.000     0.000     0.000     0.000       94        0        0        0        9       19       21    11.995       48     30.3    3.634   -9.900     1.26    0.000    0.000       30        8     2060  Maize_Rainfed_Cahul_10May_Optimal_26_MOHC.PRM
  Tot(81)       10        5     2061     48.0    656.2   1563.5   441.00      0.0     48.0      0.0      0.0      0.0     81.0       21    171.8    171.8       70     0.000     0.000     0.000     0.000       88        0        0        0        4       27       21     9.676       39     24.9    2.408   -9.900     0.98    0.000    0.000       30        8     2061  Maize_Rainfed_Cahul_10May_Optimal_26_MOHC.PRM
  Tot(82)       10        5     2062     79.5    663.5   1541.1   441.00      0.0     79.5      0.0      0.0      0.0    105.3       25    169.9    169.9       74     0.000     0.000     0.000     0.000       91        0        0        0        5       31       19     9.241       37     26.9    2.488   -9.900     0.94    0.000    0.000       30        8     2062  Maize_Rainfed_Cahul_10May_Optimal_26_MOHC.PRM
  Tot(83)       10        5     2063    157.6    630.9   1531.7   441.00      0.0    148.1      9.5     16.1      0.0    131.0       40    186.6    186.6       71     0.000     0.000     0.000     0.000       89        0        0        0        7       23       22    10.531       43     25.4    2.671   -9.900     0.89    0.000    0.000       30        8     2063  Maize_Rainfed_Cahul_10May_Optimal_26_MOHC.PRM
  Tot(84)       10        5     2064    118.9    646.3   1573.4   440.00      0.0    112.9      6.0      9.7      0.0    120.9       36    188.2    188.2       71     0.000     0.000     0.000     0.000       90        0        0        0        4       22       22    10.747       43     26.3    2.825   -9.900     0.96    0.000    0.000       30        8     2064  Maize_Rainfed_Cahul_10May_Optimal_26_MOHC.PRM
  Tot(85)       10        5     2065     52.4    745.0   1625.6   440.00      0.0     52.4      0.0      0.0      0.0     87.1       18    156.2    156.2       69     0.000     0.000     0.000     0.000       81        0        0        0        1       34       22     7.139       29     18.2    1.298   -9.900     0.55    0.000    0.000       30        8     2065  Maize_Rainfed_Cahul_10May_Optimal_26_MOHC.PRM
  Tot(86)       10        5     2066    282.6    596.3   1463.5   440.00      0.0    207.7     74.9      5.9      0.0    142.1       46    190.3    190.3       74     0.000     0.000     0.000     0.000       89        0        0        0        7       27       20    10.534       43     26.0    2.740   -9.900     0.89    0.000    0.000       30        8     2066  Maize_Rainfed_Cahul_10May_Optimal_26_MOHC.PRM
  Tot(87)       10        5     2067     81.1    651.5   1510.9   439.00      0.0     80.3      0.8      0.0      0.0     77.2       22    208.6    207.8       73     0.000     0.000     0.000     0.000      107        0        0        0        3       32       19    11.503       46     40.0    4.605   -9.900     1.61    0.000    0.000       30        8     2067  Maize_Rainfed_Cahul_10May_Optimal_26_MOHC.PRM
  Tot(88)       10        5     2068    226.7    554.1   1381.5   439.00      0.0    207.9     18.8     23.8      0.0    104.3       48    282.1    281.6       84     0.000     0.000     0.000     0.000      107        0        0        0        9        4       12    18.383       75     39.5    7.254   -9.900     1.88    0.000    0.000       30        8     2068  Maize_Rainfed_Cahul_10May_Optimal_26_MOHC.PRM
  Tot(89)       10        5     2069    104.6    576.2   1445.9   438.00      0.0    104.0      0.6      0.0      0.0    106.1       40    216.7    218.0       76     0.000     0.000     0.000     0.000       97        0        0        0        8       14       20    13.374       54     33.5    4.481   -9.900     1.40    0.000    0.000       30        8     2069  Maize_Rainfed_Cahul_10May_Optimal_26_MOHC.PRM
  Tot(90)       10        5     2070     60.4    601.8   1462.7   437.00      0.0     52.8      7.6     22.3      0.0     62.3       19    173.4    173.4       71     0.000     0.000     0.000     0.000       89        0        0        0        8       25       21    10.081       41     25.5    2.572   -9.900     1.11    0.000    0.000       30        8     2070  Maize_Rainfed_Cahul_10May_Optimal_26_MOHC.PRM
  Tot(91)       10        5     2071    247.2    573.5   1413.2   437.00      0.0    223.7     23.5      5.9      0.0    141.1       54    231.5    230.4       77     0.000     0.000     0.000     0.000      107        0        0        0        5       16       17    14.561       60     39.6    5.772   -9.900     1.55    0.000    0.000       30        8     2071  Maize_Rainfed_Cahul_10May_Optimal_26_MOHC.PRM
  Tot(92)       10        5     2072     96.2    590.3   1407.6   436.00      0.0     93.6      2.6      2.9      0.0    109.7       36    191.7    192.8       76     0.000     0.000     0.000     0.000       94        0        0        0        8       22       20    11.662       47     30.8    3.587   -9.900     1.20    0.000    0.000       30        8     2072  Maize_Rainfed_Cahul_10May_Optimal_26_MOHC.PRM
  Tot(93)       10        5     2073     54.1    699.7   1636.6   436.00      0.0     54.0      0.1      0.0      0.0     89.6       20    157.9    157.9       72     0.000     0.000     0.000     0.000       84        0        0        0        1       33       20     7.915       32     20.8    1.647   -9.900     0.67    0.000    0.000       30        8     2073  Maize_Rainfed_Cahul_10May_Optimal_26_MOHC.PRM
  Tot(94)       10        5     2074    100.7    629.6   1400.4   435.00      0.0    100.6      0.1      0.0      0.0     98.4       32    221.3    221.3       75     0.000     0.000     0.000     0.000       98        0        0        0        9       15       20    13.020       53     34.4    4.483   -9.900     1.42    0.000    0.000       30        8     2074  Maize_Rainfed_Cahul_10May_Optimal_26_MOHC.PRM
  Tot(95)       10        5     2075    115.2    580.4   1450.2   435.00      0.0    114.7      0.5      0.9      0.0    130.3       48    198.1    198.1       71     0.000     0.000     0.000     0.000       96        0        0        0        7       14       21    12.670       52     32.2    4.085   -9.900     1.27    0.000    0.000       30        8     2075  Maize_Rainfed_Cahul_10May_Optimal_26_MOHC.PRM
  Tot(96)       10        5     2076     78.6    716.7   1642.9   434.00      0.0     77.7      0.9      0.0      0.0    100.8       25    183.5    183.5       69     0.000     0.000     0.000     0.000       87        0        0        0        3       25       22     9.542       38     23.2    2.215   -9.900     0.79    0.000    0.000       30        8     2076  Maize_Rainfed_Cahul_10May_Optimal_26_MOHC.PRM
  Tot(97)       10        5     2077     75.0    702.9   1517.6   433.00      0.0     75.0      0.0      0.0      0.0    104.2       25    172.9    172.9       70     0.000     0.000     0.000     0.000       86        0        0        0        3       29       22     8.842       36     22.5    1.988   -9.900     0.73    0.000    0.000       30        8     2077  Maize_Rainfed_Cahul_10May_Optimal_26_MOHC.PRM
  Tot(98)       10        5     2078    158.1    614.4   1552.6   433.00      0.0    157.6      0.5      0.0      0.0    144.7       51    232.9    232.9       77     0.000     0.000     0.000     0.000       99        0        0        0        3       14       21    13.886       56     35.2    4.885   -9.900     1.30    0.000    0.000       30        8     2078  Maize_Rainfed_Cahul_10May_Optimal_26_MOHC.PRM
  Tot(99)       10        5     2079    113.7    648.4   1524.5   432.00      0.0    111.5      2.2      0.0      0.0    111.6       32    194.4    194.4       71     0.000     0.000     0.000     0.000       93        0        0        0        6       21       22    11.093       45     29.2    3.234   -9.900     1.16    0.000    0.000       30        8     2079  Maize_Rainfed_Cahul_10May_Optimal_26_MOHC.PRM
 Tot(100)       10        5     2080     91.2    650.8   1502.4   432.00      0.0     90.2      1.0      3.0      0.0    108.4       32    190.8    190.8       70     0.000     0.000     0.000     0.000       90        0        0        0        7       24       22    10.579       43     26.2    2.772   -9.900     0.94    0.000    0.000       30        8     2080  Maize_Rainfed_Cahul_10May_Optimal_26_MOHC.PRM
 Tot(101)       10        5     2081     86.5    705.0   1667.7   431.00      0.0     86.4      0.1      0.0      0.0    111.5       26    171.1    171.1       71     0.000     0.000     0.000     0.000       86        0        0        0        1       30       21     8.741       35     22.5    1.967   -9.900     0.74    0.000    0.000       30        8     2081  Maize_Rainfed_Cahul_10May_Optimal_26_MOHC.PRM
 Tot(102)       10        5     2082     66.2    707.0   1594.5   431.00      0.0     64.6      1.6      7.4      0.0     91.0       21    162.5    162.5       70     0.000     0.000     0.000     0.000       84        0        0        0        4       32       21     8.129       33     20.6    1.672   -9.900     0.68    0.000    0.000       30        8     2082  Maize_Rainfed_Cahul_10May_Optimal_26_MOHC.PRM
 Tot(103)       10        5     2083    101.8    682.6   1595.9   430.00      0.0    101.4      0.4      0.0      0.0    113.1       27    169.9    169.9       71     0.000     0.000     0.000     0.000       85        0        0        0        3       30       21     8.487       34     21.5    1.826   -9.900     0.73    0.000    0.000       30        8     2083  Maize_Rainfed_Cahul_10May_Optimal_26_MOHC.PRM
 Tot(104)       10        5     2084    102.0    663.7   1574.4   429.00      0.0    102.0      0.0      0.0      0.0     96.5       30    220.5    220.5       71     0.000     0.000     0.000     0.000       93        0        0        0        6       17       22    11.823       48     29.1    3.445   -9.900     1.11    0.000    0.000       30        8     2084  Maize_Rainfed_Cahul_10May_Optimal_26_MOHC.PRM
 Tot(105)       10        5     2085     64.6    596.6   1485.7   429.00      0.0     64.6      0.0      0.0      0.0     87.8       28    183.6    183.6       72     0.000     0.000     0.000     0.000       92        0        0        0        7       22       21    10.998       45     28.5    3.136   -9.900     1.20    0.000    0.000       30        8     2085  Maize_Rainfed_Cahul_10May_Optimal_26_MOHC.PRM
 Tot(106)       10        5     2086    137.0    587.5   1404.4   428.00      0.0    121.9     15.1     21.6      0.0    106.5       40    211.7    211.7       73     0.000     0.000     0.000     0.000       96        0        0        0        8       12       21    12.646       52     32.1    4.059   -9.900     1.30    0.000    0.000       30        8     2086  Maize_Rainfed_Cahul_10May_Optimal_26_MOHC.PRM
 Tot(107)       10        5     2087     97.1    704.6   1637.4   428.00      0.0     96.7      0.4      0.2      0.0    110.9       24    163.9    163.9       73     0.000     0.000     0.000     0.000       83        0        0        0        2       33       21     7.848       32     20.2    1.589   -9.900     0.63    0.000    0.000       30        8     2087  Maize_Rainfed_Cahul_10May_Optimal_26_MOHC.PRM
 Tot(108)       10        5     2088    112.4    589.5   1419.6   427.00      0.0    109.8      2.6      8.7      0.0    104.2       35    180.7    180.7       71     0.000     0.000     0.000     0.000       90        0        0        0       11       23       21    10.684       44     26.4    2.820   -9.900     1.05    0.000    0.000       30        8     2088  Maize_Rainfed_Cahul_10May_Optimal_26_MOHC.PRM
 Tot(109)       10        5     2089    150.9    600.9   1540.4   427.00      0.0    150.1      0.8      0.0      0.0    144.2       46    215.3    215.3       77     0.000     0.000     0.000     0.000      100        0        0        0        2       25       20    12.818       52     36.6    4.693   -9.900     1.36    0.000    0.000       30        8     2089  Maize_Rainfed_Cahul_10May_Optimal_26_MOHC.PRM
 Tot(110)       10        5     2090     65.9    666.1   1602.1   426.00      0.0     65.0      0.9      2.4      0.0     88.1       23    179.1    179.1       74     0.000     0.000     0.000     0.000       89        0        0        0        2       27       20     9.776       39     25.7    2.514   -9.900     0.95    0.000    0.000       30        8     2090  Maize_Rainfed_Cahul_10May_Optimal_26_MOHC.PRM
 Tot(111)       10        5     2091    139.8    601.8   1511.4   425.00      0.0    138.3      1.5      1.4      0.0    117.1       41    232.3    231.4       74     0.000     0.000     0.000     0.000      107        0        0        0        3       26       19    13.993       57     39.5    5.522   -9.900     1.58    0.000    0.000       30        8     2091  Maize_Rainfed_Cahul_10May_Optimal_26_MOHC.PRM
 Tot(112)       10        5     2092     91.4    576.9   1423.6   425.00      0.0     91.2      0.2      0.5      0.0     92.6       36    222.6    223.6       75     0.000     0.000     0.000     0.000      103        0        0        0       10       12       20    14.439       59     38.6    5.569   -9.900     1.77    0.000    0.000       30        8     2092  Maize_Rainfed_Cahul_10May_Optimal_26_MOHC.PRM
 Tot(113)       10        5     2093     75.3    637.6   1520.2   424.00      0.0     75.2      0.1      0.0      0.0     92.7       28    196.6    196.6       72     0.000     0.000     0.000     0.000       92        0        0        0        5       21       22    11.071       45     28.3    3.131   -9.900     1.10    0.000    0.000       30        8     2093  Maize_Rainfed_Cahul_10May_Optimal_26_MOHC.PRM
 Tot(114)       10        5     2094    167.3    570.6   1411.7   424.00      0.0    112.1     55.2     35.7      0.0     99.6       34    184.8    184.8       75     0.000     0.000     0.000     0.000       91        0        0        0        9       23       20    10.958       45     28.0    3.069   -9.900     1.09    0.000    0.000       30        8     2094  Maize_Rainfed_Cahul_10May_Optimal_26_MOHC.PRM
 Tot(115)       10        5     2095    140.1    603.1   1439.1   423.00      0.0    138.6      1.5      0.4      0.0    105.2       44    256.8    256.8       76     0.000     0.000     0.000     0.000      104        0        0        0        9        3       21    15.134       62     38.3    5.790   -9.900     1.60    0.000    0.000       30        8     2095  Maize_Rainfed_Cahul_10May_Optimal_26_MOHC.PRM
 Tot(116)       10        5     2096     55.8    716.7   1648.5   423.00      0.0     55.8      0.0      0.0      0.0     91.7       19    161.4    161.4       74     0.000     0.000     0.000     0.000       88        0        0        0        1       35       18     7.860       32     24.9    1.959   -9.900     0.80    0.000    0.000       30        8     2096  Maize_Rainfed_Cahul_10May_Optimal_26_MOHC.PRM
 Tot(117)       10        5     2097     75.1    623.2   1524.2   422.00      0.0     74.8      0.3      0.0      0.0     98.6       32    194.3    194.3       71     0.000     0.000     0.000     0.000       93        0        0        0        6       19       22    11.697       48     29.3    3.425   -9.900     1.18    0.000    0.000       30        8     2097  Maize_Rainfed_Cahul_10May_Optimal_26_MOHC.PRM
 Tot(118)       10        5     2098     79.0    600.9   1334.1   422.00      0.0     74.7      4.3     12.1      0.0     70.9       24    208.2    208.0       71     0.000     0.000     0.000     0.000      107        0        0        0       11       28       23    12.205       50     39.7    4.840   -9.900     1.73    0.000    0.000       30        8     2098  Maize_Rainfed_Cahul_10May_Optimal_26_MOHC.PRM
 Tot(119)       10        5     2099     67.3    747.0   1618.9   421.00      0.0     55.7     11.6     16.2      0.0     74.7       16    162.8    163.0       69     0.000     0.000     0.000     0.000       83        0        0        0        6       33       22     7.529       31     19.9    1.502   -9.900     0.64    0.000    0.000       30        8     2099  Maize_Rainfed_Cahul_10May_Optimal_26_MOHC.PRM
