AquaCrop 7.0 (August 2022) - Output created on (date) : 07-07-2023   at (time) : 12:45:38

    RunNr     Day1   Month1    Year1     Rain      ETo       GD     CO2      Irri   Infilt   Runoff    Drain   Upflow        E     E/Ex       Tr      TrW   Tr/Trx    SaltIn   SaltOut    SaltUp  SaltProf     Cycle   SaltStr  FertStr  WeedStr  TempStr   ExpStr   StoStr  BioMass  Brelative   HI    Y(dry)  Y(fresh)    WPet      Bin     Bout     DayN   MonthN    YearN
                                           mm       mm  degC.day    ppm        mm       mm       mm       mm       mm       mm        %       mm       mm        %    ton/ha    ton/ha    ton/ha    ton/ha      days       %        %        %        %        %        %    ton/ha        %       %    ton/ha   ton/ha    kg/m3   ton/ha   ton/ha
   Tot(1)       10        5     1981    146.8    507.3   1246.2   340.11    163.4    145.0      1.8      0.6      0.0     84.2       39    300.6    299.1      100     0.000     0.000     0.000     0.000      107        0        0        0       10        5        0    20.584       95     40.1    8.245   -9.900     2.14    0.000    0.000       30        8     1981  Maize_Irrigated_Cahul_10May_Optimal_26_MOHC.PRM
   Tot(2)       10        5     1982    232.4    490.7   1271.5   341.22     81.1    228.8      3.6      0.0      0.0    107.7       49    283.3    282.7      100     0.000     0.000     0.000     0.000      107        0        0        0        6        3        0    21.328       95     40.0    8.536   -9.900     2.18    0.000    0.000       30        8     1982  Maize_Irrigated_Cahul_10May_Optimal_26_MOHC.PRM
   Tot(3)       10        5     1983    291.5    495.5   1304.3   342.84     78.7    260.5     31.0     28.5      0.0    108.2       50    290.0    290.0      100     0.000     0.000     0.000     0.000      107        0        0        0        6        2        0    21.473       96     40.1    8.602   -9.900     2.16    0.000    0.000       30        8     1983  Maize_Irrigated_Cahul_10May_Optimal_26_MOHC.PRM
   Tot(4)       10        5     1984    204.1    468.4   1129.3   344.40    124.3    199.2      4.9     10.1      0.0    127.8       67    270.7    270.2      100     0.000     0.000     0.000     0.000      107        0        0        0       12        2        0    20.467       97     40.1    8.202   -9.900     2.06    0.000    0.000       30        8     1984  Maize_Irrigated_Cahul_10May_Optimal_26_MOHC.PRM
   Tot(5)       10        5     1985    291.0    486.1   1240.6   345.87    109.5    263.4     27.6     47.0      0.0    120.8       60    286.1    286.2      100     0.000     0.000     0.000     0.000      107        0        0        0        9        1        0    20.927       97     40.0    8.371   -9.900     2.06    0.000    0.000       30        8     1985  Maize_Irrigated_Cahul_10May_Optimal_26_MOHC.PRM
   Tot(6)       10        5     1986    174.4    542.4   1329.9   347.19    194.5    169.8      4.6      0.0      0.0    108.7       48    324.2    323.7      100     0.000     0.000     0.000     0.000      107        0        0        0        5        5        0    21.345       95     40.1    8.550   -9.900     1.98    0.000    0.000       30        8     1986  Maize_Irrigated_Cahul_10May_Optimal_26_MOHC.PRM
   Tot(7)       10        5     1987    239.8    498.8   1219.8   348.98    149.5    217.5     22.3      0.0      0.0    143.6       71    304.7    305.7      100     0.000     0.000     0.000     0.000      107        0        0        0       12        5        0    20.863       95     40.0    8.355   -9.900     1.86    0.000    0.000       30        8     1987  Maize_Irrigated_Cahul_10May_Optimal_26_MOHC.PRM
   Tot(8)       10        5     1988    149.3    506.3   1314.4   351.45    241.5    147.1      2.2      4.6      0.0    126.1       71    341.0    339.6      100     0.000     0.000     0.000     0.000      107        0        0        0        6        3        0    22.228       97     40.0    8.900   -9.900     1.91    0.000    0.000       30        8     1988  Maize_Irrigated_Cahul_10May_Optimal_26_MOHC.PRM
   Tot(9)       10        5     1989    210.2    497.8   1242.2   352.89    175.4    202.5      7.7      0.0      0.0    149.5       74    305.4    308.0      100     0.000     0.000     0.000     0.000      107        0        0        0       13        5        0    21.462       95     40.1    8.598   -9.900     1.89    0.000    0.000       30        8     1989  Maize_Irrigated_Cahul_10May_Optimal_26_MOHC.PRM
  Tot(10)       10        5     1990    134.5    533.2   1221.9   354.16    230.7    132.6      1.9      0.0      0.0    113.6       54    334.4    332.4      100     0.000     0.000     0.000     0.000      107        0        0        0       13        4        0    21.821       96     40.1    8.746   -9.900     1.95    0.000    0.000       30        8     1990  Maize_Irrigated_Cahul_10May_Optimal_26_MOHC.PRM
  Tot(11)       10        5     1991    366.2    440.5   1237.7   355.48     64.9    324.5     41.7     63.1      0.0    119.2       75    294.6    295.4      100     0.000     0.000     0.000     0.000      107        0        0        0       14        0        0    22.523       98     40.0    9.015   -9.900     2.18    0.000    0.000       30        8     1991  Maize_Irrigated_Cahul_10May_Optimal_26_MOHC.PRM
  Tot(12)       10        5     1992    169.4    527.1   1280.4   356.27    228.6    166.1      3.3      0.0      0.0    128.8       69    349.5    348.2      100     0.000     0.000     0.000     0.000      107        0        0        0       13        3        0    22.241       97     40.1    8.912   -9.900     1.86    0.000    0.000       30        8     1992  Maize_Irrigated_Cahul_10May_Optimal_26_MOHC.PRM
  Tot(13)       10        5     1993    217.3    512.9   1209.9   356.95    191.4    201.3     16.0     26.7      0.0    128.8       65    311.9    315.0      100     0.000     0.000     0.000     0.000      107        0        0        0       10        2        0    20.745       97     40.0    8.305   -9.900     1.88    0.000    0.000       30        8     1993  Maize_Irrigated_Cahul_10May_Optimal_26_MOHC.PRM
  Tot(14)       10        5     1994    230.6    531.5   1344.3   358.63    248.6    180.6     50.0      4.6      0.0    164.6       74    328.3    326.1      100     0.000     0.000     0.000     0.000      107        0        0        0        8        5        0    21.859       94     40.0    8.746   -9.900     1.77    0.000    0.000       30        8     1994  Maize_Irrigated_Cahul_10May_Optimal_26_MOHC.PRM
  Tot(15)       10        5     1995    166.2    526.5   1355.9   360.62    211.4    154.6     11.6      6.3      0.0    102.7       48    333.8    335.1      100     0.000     0.000     0.000     0.000      107        0        0        0        6        5        0    22.323       95     40.1    8.947   -9.900     2.05    0.000    0.000       30        8     1995  Maize_Irrigated_Cahul_10May_Optimal_26_MOHC.PRM
  Tot(16)       10        5     1996    151.7    560.7   1318.1   362.37    259.6    133.8     17.9      0.0      0.0    121.5       49    325.3    323.8      100     0.000     0.000     0.000     0.000      107        0        0        0        7        8        0    21.194       93     40.1    8.495   -9.900     1.90    0.000    0.000       30        8     1996  Maize_Irrigated_Cahul_10May_Optimal_26_MOHC.PRM
  Tot(17)       10        5     1997    425.5    464.4   1256.1   363.47      0.0    386.3     39.2      1.3      0.0    126.9       65    282.2    283.1      100     0.000     0.000     0.000     0.000      107        0        0        0       10        1        0    22.379       97     40.0    8.955   -9.900     2.19    0.000    0.000       30        8     1997  Maize_Irrigated_Cahul_10May_Optimal_26_MOHC.PRM
  Tot(18)       10        5     1998    211.3    512.8   1294.4   366.50    212.5    200.7     10.6      4.2      0.0    126.5       68    335.0    335.6      100     0.000     0.000     0.000     0.000      107        0        0        0       11        1        0    22.023       97     40.1    8.821   -9.900     1.91    0.000    0.000       30        8     1998  Maize_Irrigated_Cahul_10May_Optimal_26_MOHC.PRM
  Tot(19)       10        5     1999    300.7    547.1   1408.0   368.14    137.8    248.7     52.0      0.0      0.0    119.8       53    341.7    340.4      100     0.000     0.000     0.000     0.000      107        0        0        0        6        4        0    22.573       95     40.1    9.045   -9.900     1.96    0.000    0.000       30        8     1999  Maize_Irrigated_Cahul_10May_Optimal_26_MOHC.PRM
  Tot(20)       10        5     2000     73.7    615.7   1340.3   369.41    418.6     72.3      1.4      0.0      0.0    229.9       80    346.0    345.7      100     0.000     0.000     0.000     0.000      107        0        0        0        6        9        0    20.916       92     40.1    8.382   -9.900     1.46    0.000    0.000       30        8     2000  Maize_Irrigated_Cahul_10May_Optimal_26_MOHC.PRM
  Tot(21)       10        5     2001    197.2    553.7   1323.0   371.07    244.2    168.3     28.9     19.7      0.0    119.3       57    359.5    360.6      100     0.000     0.000     0.000     0.000      107        0        0        0        8        3        0    22.670       96     40.1    9.086   -9.900     1.90    0.000    0.000       30        8     2001  Maize_Irrigated_Cahul_10May_Optimal_26_MOHC.PRM
  Tot(22)       10        5     2002    295.7    563.3   1406.9   373.16    222.9    245.7     50.0      0.0      0.0    197.1       80    339.9    338.3      100     0.000     0.000     0.000     0.000      107        0        0        0        5        8        0    22.155       93     40.1    8.885   -9.900     1.65    0.000    0.000       30        8     2002  Maize_Irrigated_Cahul_10May_Optimal_26_MOHC.PRM
  Tot(23)       10        5     2003    102.9    601.8   1428.1   375.80    385.0    102.0      0.9      0.0      0.0    223.7       79    338.6    336.4      100     0.000     0.000     0.000     0.000      107        0        0        0        3        8        0    21.740       92     40.0    8.697   -9.900     1.55    0.000    0.000       30        8     2003  Maize_Irrigated_Cahul_10May_Optimal_26_MOHC.PRM
  Tot(24)       10        5     2004    274.3    515.6   1240.7   377.49    150.8    249.5     24.8      2.4      0.0    131.9       65    326.2    328.4      100     0.000     0.000     0.000     0.000      107        0        0        0       11        4        0    22.397       96     40.0    8.959   -9.900     1.96    0.000    0.000       30        8     2004  Maize_Irrigated_Cahul_10May_Optimal_26_MOHC.PRM
  Tot(25)       10        5     2005    357.3    523.6   1316.6   379.80     65.7    323.3     34.0      6.3      0.0    138.5       66    328.1    328.0      100     0.000     0.000     0.000     0.000      107        0        0        0        7        2        0    22.899       97     40.0    9.163   -9.900     1.96    0.000    0.000       30        8     2005  Maize_Irrigated_Cahul_10May_Optimal_26_MOHC.PRM
  Tot(26)       10        5     2006    170.7    575.9   1338.1   381.90    245.8    159.1     11.6     12.8      0.0    106.1       45    358.2    360.5      100     0.000     0.000     0.000     0.000      107        0        0        0        7        6        0    22.152       94     40.1    8.880   -9.900     1.91    0.000    0.000       30        8     2006  Maize_Irrigated_Cahul_10May_Optimal_26_MOHC.PRM
  Tot(27)       10        5     2007    117.6    680.9   1520.4   383.77    437.2    103.7     13.9      0.0      0.0    221.4       73    404.8    403.0      100     0.000     0.000     0.000     0.000      107        0        0        0        1        9        0    21.943       91     40.1    8.796   -9.900     1.40    0.000    0.000       30        8     2007  Maize_Irrigated_Cahul_10May_Optimal_26_MOHC.PRM
  Tot(28)       10        5     2008    142.7    609.1   1384.2   385.59    378.5    138.5      4.2      0.0      0.0    210.8       84    378.8    380.2      100     0.000     0.000     0.000     0.000      107        0        0        0        4        7        0    22.259       93     40.1    8.919   -9.900     1.51    0.000    0.000       30        8     2008  Maize_Irrigated_Cahul_10May_Optimal_26_MOHC.PRM
  Tot(29)       10        5     2009    135.2    618.6   1416.0   387.37    367.8    129.3      5.9      0.0      0.0    209.5       77    371.0    369.0      100     0.000     0.000     0.000     0.000      107        0        0        0        3        7        0    22.219       92     40.1    8.899   -9.900     1.53    0.000    0.000       30        8     2009  Maize_Irrigated_Cahul_10May_Optimal_26_MOHC.PRM
  Tot(30)       10        5     2010    257.4    553.9   1446.3   389.85    169.0    227.8     29.6      1.0      0.0    130.3       58    344.2    345.7      100     0.000     0.000     0.000     0.000      107        0        0        0        7        2        0    22.646       96     40.0    9.058   -9.900     1.91    0.000    0.000       30        8     2010  Maize_Irrigated_Cahul_10May_Optimal_26_MOHC.PRM
  Tot(31)       10        5     2011    170.0    575.1   1394.0   391.63    236.2    161.5      8.5      2.2      0.0    124.7       53    351.9    349.8      100     0.000     0.000     0.000     0.000      107        0        0        0        4        4        0    22.398       95     40.1    8.978   -9.900     1.88    0.000    0.000       30        8     2011  Maize_Irrigated_Cahul_10May_Optimal_26_MOHC.PRM
  Tot(32)       10        5     2012    235.5    644.6   1476.6   393.82    300.5    221.3     14.2      8.1      0.0    155.0       65    426.0    426.9      100     0.000     0.000     0.000     0.000      107        0        0        0        5        4        0    23.221       96     40.0    9.299   -9.900     1.60    0.000    0.000       30        8     2012  Maize_Irrigated_Cahul_10May_Optimal_26_MOHC.PRM
  Tot(33)       10        5     2013    245.8    572.9   1442.3   396.48    284.9    210.1     35.7      0.0      0.0    201.5       85    357.7    358.4      100     0.000     0.000     0.000     0.000      107        0        0        0        3        4        0    22.962       95     40.1    9.198   -9.900     1.64    0.000    0.000       30        8     2013  Maize_Irrigated_Cahul_10May_Optimal_26_MOHC.PRM
  Tot(34)       10        5     2014    231.2    553.0   1388.0   398.55    199.9    222.3      8.9      8.0      0.0    137.8       67    360.4    359.8      100     0.000     0.000     0.000     0.000      107        0        0        0        4        3        0    23.158       97     40.0    9.274   -9.900     1.86    0.000    0.000       30        8     2014  Maize_Irrigated_Cahul_10May_Optimal_26_MOHC.PRM
  Tot(35)       10        5     2015    138.4    632.1   1420.5   401.00    381.4    127.7     10.7      0.0      0.0    210.7       77    379.8    379.0      100     0.000     0.000     0.000     0.000      107        0        0        0        4        7        0    22.186       93     40.1    8.890   -9.900     1.51    0.000    0.000       30        8     2015  Maize_Irrigated_Cahul_10May_Optimal_26_MOHC.PRM
  Tot(36)       10        5     2016    181.4    575.2   1403.1   403.00    271.4    177.3      4.1      1.2      0.0    145.2       71    386.3    386.9      100     0.000     0.000     0.000     0.000      107        0        0        0        8        4        0    23.262       96     40.1    9.326   -9.900     1.75    0.000    0.000       30        8     2016  Maize_Irrigated_Cahul_10May_Optimal_26_MOHC.PRM
  Tot(37)       10        5     2017    261.1    575.3   1379.0   405.00    172.7    214.9     46.2      1.3      0.0    107.5       48    364.4    365.5      100     0.000     0.000     0.000     0.000      107        0        0        0        6        4        0    22.920       95     40.1    9.185   -9.900     1.95    0.000    0.000       30        8     2017  Maize_Irrigated_Cahul_10May_Optimal_26_MOHC.PRM
  Tot(38)       10        5     2018    166.6    568.1   1494.6   408.00    213.5    150.5     16.1      0.0      0.0    119.4       46    325.2    323.3      100     0.000     0.000     0.000     0.000      107        0        0        0        2        6        0    22.497       93     40.1    9.011   -9.900     2.03    0.000    0.000       30        8     2018  Maize_Irrigated_Cahul_10May_Optimal_26_MOHC.PRM
  Tot(39)       10        5     2019    183.6    599.5   1473.9   410.00    277.9    179.4      4.2      1.9      0.0    158.1       68    381.6    382.4      100     0.000     0.000     0.000     0.000      107        0        0        0        2        4        0    23.224       96     40.1    9.302   -9.900     1.72    0.000    0.000       30        8     2019  Maize_Irrigated_Cahul_10May_Optimal_26_MOHC.PRM
  Tot(40)       10        5     2020     70.1    650.4   1446.8   412.00    411.8     67.9      2.2      2.4      0.0    114.3       51    440.5    438.8      100     0.000     0.000     0.000     0.000      107        0        0        0       10        6        0    23.143       95     40.1    9.282   -9.900     1.67    0.000    0.000       30        8     2020  Maize_Irrigated_Cahul_10May_Optimal_26_MOHC.PRM
  Tot(41)       10        5     2021     51.0    633.8   1451.5   414.00    403.9     51.0      0.0      0.0      0.0    105.4       47    425.9    425.7      100     0.000     0.000     0.000     0.000      107        0        0        0        7        7        0    23.017       94     40.1    9.232   -9.900     1.74    0.000    0.000       30        8     2021  Maize_Irrigated_Cahul_10May_Optimal_26_MOHC.PRM
  Tot(42)       10        5     2022     94.8    650.9   1550.1   417.00    378.2     91.6      3.2      4.7      0.0    113.3       48    431.9    432.8      100     0.000     0.000     0.000     0.000      107        0        0        0        3        5        0    23.353       95     40.1    9.365   -9.900     1.72    0.000    0.000       30        8     2022  Maize_Irrigated_Cahul_10May_Optimal_26_MOHC.PRM
  Tot(43)       10        5     2023     76.3    702.0   1612.9   419.00    530.6     75.0      1.3      0.0      0.0    233.2       81    440.7    443.3      100     0.000     0.000     0.000     0.000      107        0        0        0        2        9        0    22.552       92     40.1    9.042   -9.900     1.34    0.000    0.000       30        8     2023  Maize_Irrigated_Cahul_10May_Optimal_26_MOHC.PRM
  Tot(44)       10        5     2024    175.0    618.9   1509.1   421.00    361.9    142.4     32.6      0.0      0.0    181.3       78    402.2    399.4      100     0.000     0.000     0.000     0.000      107        0        0        0        3        5        0    23.246       94     40.0    9.304   -9.900     1.59    0.000    0.000       30        8     2024  Maize_Irrigated_Cahul_10May_Optimal_26_MOHC.PRM
  Tot(45)       10        5     2025    102.6    639.8   1419.1   423.00    398.9     91.0     11.6      7.4      0.0    118.1       49    419.5    422.9      100     0.000     0.000     0.000     0.000      107        0        0        0       10        9        0    22.078       93     40.1    8.854   -9.900     1.65    0.000    0.000       30        8     2025  Maize_Irrigated_Cahul_10May_Optimal_26_MOHC.PRM
  Tot(46)       10        5     2026     86.3    705.6   1562.4   424.00    444.8     86.1      0.2      0.0      0.0    144.2       56    468.1    465.2      100     0.000     0.000     0.000     0.000      107        0        0        0        5        6        0    23.342       95     40.1    9.363   -9.900     1.53    0.000    0.000       30        8     2026  Maize_Irrigated_Cahul_10May_Optimal_26_MOHC.PRM
  Tot(47)       10        5     2027     99.2    665.2   1511.3   426.00    405.5     94.4      4.8     10.6      0.0    120.3       52    453.2    453.8      100     0.000     0.000     0.000     0.000      107        0        0        0        6        7        0    23.249       94     40.1    9.326   -9.900     1.63    0.000    0.000       30        8     2027  Maize_Irrigated_Cahul_10May_Optimal_26_MOHC.PRM
  Tot(48)       10        5     2028    115.7    680.1   1520.2   428.00    437.2    112.0      3.7      5.3      0.0    146.5       63    469.3    469.2      100     0.000     0.000     0.000     0.000      107        0        0        0        5        7        0    23.562       95     40.1    9.452   -9.900     1.53    0.000    0.000       30        8     2028  Maize_Irrigated_Cahul_10May_Optimal_26_MOHC.PRM
  Tot(49)       10        5     2029    169.8    616.7   1499.4   429.00    366.7    154.5     15.3     30.0      0.0    138.3       70    430.9    429.5      100     0.000     0.000     0.000     0.000      107        0        0        0        6        3        0    23.832       97     40.1    9.555   -9.900     1.68    0.000    0.000       30        8     2029  Maize_Irrigated_Cahul_10May_Optimal_26_MOHC.PRM
  Tot(50)       10        5     2030    139.7    731.2   1649.1   431.00    494.2    117.2     22.5      0.0      0.0    206.2       78    485.5    486.1      100     0.000     0.000     0.000     0.000      107        0        0        0        4        7        0    23.094       93     22.1    5.102   -9.900     0.74    0.000    0.000       30        8     2030  Maize_Irrigated_Cahul_10May_Optimal_26_MOHC.PRM
  Tot(51)       10        5     2031     95.7    626.0   1489.4   432.00    357.7     94.8      0.9      0.0      0.0    118.9       53    416.5    417.1      100     0.000     0.000     0.000     0.000      107        0        0        0        5        5        0    23.504       95     40.1    9.421   -9.900     1.76    0.000    0.000       30        8     2031  Maize_Irrigated_Cahul_10May_Optimal_26_MOHC.PRM
  Tot(52)       10        5     2032     27.9    757.1   1690.4   433.00    609.4     27.4      0.5      0.8      0.0    249.9       80    468.9    469.0      100     0.000     0.000     0.000     0.000      107        0        0        0        0       11        0    22.286       90     27.3    6.083   -9.900     0.85    0.000    0.000       30        8     2032  Maize_Irrigated_Cahul_10May_Optimal_26_MOHC.PRM
  Tot(53)       10        5     2033    103.9    699.2   1621.5   435.00    417.1    102.2      1.7      0.0      0.0    142.4       55    459.5    459.5      100     0.000     0.000     0.000     0.000      107        0        0        0        2        6        0    23.310       95     40.1    9.349   -9.900     1.55    0.000    0.000       30        8     2033  Maize_Irrigated_Cahul_10May_Optimal_26_MOHC.PRM
  Tot(54)       10        5     2034     88.9    620.2   1463.0   436.00    371.2     88.2      0.7      1.3      0.0    120.3       56    415.3    414.0      100     0.000     0.000     0.000     0.000      107        0        0        0        7        5        0    23.420       95     40.1    9.386   -9.900     1.75    0.000    0.000       30        8     2034  Maize_Irrigated_Cahul_10May_Optimal_26_MOHC.PRM
  Tot(55)       10        5     2035     94.7    641.3   1551.6   437.00    383.4     91.7      3.0      1.4      0.0    123.8       54    428.1    428.4      100     0.000     0.000     0.000     0.000      107        0        0        0        2        6        0    23.330       95     40.1    9.355   -9.900     1.69    0.000    0.000       30        8     2035  Maize_Irrigated_Cahul_10May_Optimal_26_MOHC.PRM
  Tot(56)       10        5     2036     94.4    662.6   1524.9   438.00    446.4     91.2      3.2      0.0      0.0    195.7       76    423.6    424.5      100     0.000     0.000     0.000     0.000      107        0        0        0        4        8        0    22.919       93     40.1    9.191   -9.900     1.48    0.000    0.000       30        8     2036  Maize_Irrigated_Cahul_10May_Optimal_26_MOHC.PRM
  Tot(57)       10        5     2037     62.6    652.1   1544.9   438.00    443.8     62.6      0.0      0.0      0.0    120.8       60    464.2    463.5      100     0.000     0.000     0.000     0.000      107        0        0        0        4        6        0    23.622       95     40.1    9.473   -9.900     1.62    0.000    0.000       30        8     2037  Maize_Irrigated_Cahul_10May_Optimal_26_MOHC.PRM
  Tot(58)       10        5     2038    111.5    571.5   1392.8   439.00    326.8    109.3      2.2      0.0      0.0    126.3       68    394.5    396.0      100     0.000     0.000     0.000     0.000      107        0        0        0        7        3        0    23.780       97     40.1    9.533   -9.900     1.83    0.000    0.000       30        8     2038  Maize_Irrigated_Cahul_10May_Optimal_26_MOHC.PRM
  Tot(59)       10        5     2039     68.5    691.2   1569.8   440.00    462.8     67.2      1.3      2.0      0.0    138.6       58    469.3    468.2      100     0.000     0.000     0.000     0.000      107        0        0        0        3        7        0    23.560       95     40.1    9.449   -9.900     1.55    0.000    0.000       30        8     2039  Maize_Irrigated_Cahul_10May_Optimal_26_MOHC.PRM
  Tot(60)       10        5     2040     55.6    675.1   1487.2   440.00    409.5     51.5      4.1      0.0      0.0    113.5       42    426.1    425.8      100     0.000     0.000     0.000     0.000      107        0        0        0        4        9        0    22.835       92     40.1    9.158   -9.900     1.70    0.000    0.000       30        8     2040  Maize_Irrigated_Cahul_10May_Optimal_26_MOHC.PRM
  Tot(61)       10        5     2041    102.2    670.5   1490.5   441.00    428.0    101.4      0.8      1.8      0.0    133.8       65    473.9    474.2      100     0.000     0.000     0.000     0.000      107        0        0        0        8        5        0    23.707       96     40.1    9.504   -9.900     1.56    0.000    0.000       30        8     2041  Maize_Irrigated_Cahul_10May_Optimal_26_MOHC.PRM
  Tot(62)       10        5     2042     73.1    584.6   1413.0   441.00    339.1     72.3      0.8      1.8      0.0    100.7       48    386.9    386.5      100     0.000     0.000     0.000     0.000      107        0        0        0        7        6        0    23.153       94     40.1    9.279   -9.900     1.90    0.000    0.000       30        8     2042  Maize_Irrigated_Cahul_10May_Optimal_26_MOHC.PRM
  Tot(63)       10        5     2043     51.6    701.2   1613.1   441.00    536.5     51.0      0.6      0.0      0.0    205.7       81    462.2    462.7      100     0.000     0.000     0.000     0.000      107        0        0        0        3        8        0    23.033       93     40.1    9.237   -9.900     1.38    0.000    0.000       30        8     2043  Maize_Irrigated_Cahul_10May_Optimal_26_MOHC.PRM
  Tot(64)       10        5     2044    167.1    578.2   1429.2   442.00    299.7    165.5      1.6      8.9      0.0    133.8       72    401.0    400.5      100     0.000     0.000     0.000     0.000      107        0        0        0        7        3        0    24.054       97     40.1    9.642   -9.900     1.80    0.000    0.000       30        8     2044  Maize_Irrigated_Cahul_10May_Optimal_26_MOHC.PRM
  Tot(65)       10        5     2045    178.3    664.3   1532.7   442.00    401.8    154.0     24.3     31.8      0.0    151.1       68    455.8    457.1      100     0.000     0.000     0.000     0.000      107        0        0        0        2        5        0    23.857       96     40.1    9.566   -9.900     1.58    0.000    0.000       30        8     2045  Maize_Irrigated_Cahul_10May_Optimal_26_MOHC.PRM
  Tot(66)       10        5     2046     70.2    756.8   1722.0   442.00    501.1     69.6      0.6      1.6      0.0    150.6       54    496.8    495.5      100     0.000     0.000     0.000     0.000      107        0        0        0        1        9        0    23.131       93     11.6    2.672   -9.900     0.41    0.000    0.000       30        8     2046  Maize_Irrigated_Cahul_10May_Optimal_26_MOHC.PRM
  Tot(67)       10        5     2047     84.8    637.7   1578.0   442.00    421.2     82.9      1.9      5.1      0.0    141.8       66    437.2    437.6      100     0.000     0.000     0.000     0.000      107        0        0        0        5        6        0    23.689       95     40.1    9.496   -9.900     1.64    0.000    0.000       30        8     2047  Maize_Irrigated_Cahul_10May_Optimal_26_MOHC.PRM
  Tot(68)       10        5     2048    260.7    606.8   1474.1   442.00    279.9    156.5    104.2      9.6      0.0    114.9       50    391.8    391.7      100     0.000     0.000     0.000     0.000      107        0        0        0        6        5        0    23.197       95     40.1    9.298   -9.900     1.84    0.000    0.000       30        8     2048  Maize_Irrigated_Cahul_10May_Optimal_26_MOHC.PRM
  Tot(69)       10        5     2049     69.3    630.3   1583.2   443.00    447.3     68.5      0.8      0.0      0.0    210.9       81    388.3    389.3      100     0.000     0.000     0.000     0.000      107        0        0        0        3        8        0    22.853       92     40.1    9.163   -9.900     1.53    0.000    0.000       30        8     2049  Maize_Irrigated_Cahul_10May_Optimal_26_MOHC.PRM
  Tot(70)       10        5     2050     79.9    648.8   1514.3   443.00    399.3     75.4      4.5      1.1      0.0    115.1       49    431.7    431.2      100     0.000     0.000     0.000     0.000      107        0        0        0        5        7        0    23.150       94     37.0    8.573   -9.900     1.57    0.000    0.000       30        8     2050  Maize_Irrigated_Cahul_10May_Optimal_26_MOHC.PRM
  Tot(71)       10        5     2051     84.4    655.0   1536.1   443.00    401.2     83.9      0.5      0.0      0.0    119.9       54    446.4    446.2      100     0.000     0.000     0.000     0.000      107        0        0        0        7        6        0    23.441       95     40.1    9.402   -9.900     1.66    0.000    0.000       30        8     2051  Maize_Irrigated_Cahul_10May_Optimal_26_MOHC.PRM
  Tot(72)       10        5     2052     93.6    640.3   1566.9   443.00    357.9     91.5      2.1      0.0      0.0    108.1       46    422.1    422.1      100     0.000     0.000     0.000     0.000      107        0        0        0        4        6        0    23.368       94     40.0    9.352   -9.900     1.76    0.000    0.000       30        8     2052  Maize_Irrigated_Cahul_10May_Optimal_26_MOHC.PRM
  Tot(73)       10        5     2053     80.3    686.6   1614.9   443.00    491.7     77.0      3.3      0.0      0.0    209.0       78    438.4    437.9      100     0.000     0.000     0.000     0.000      107        0        0        0        2        8        0    23.005       92     40.1    9.225   -9.900     1.42    0.000    0.000       30        8     2053  Maize_Irrigated_Cahul_10May_Optimal_26_MOHC.PRM
  Tot(74)       10        5     2054    181.3    641.6   1557.6   443.00    318.7    171.9      9.4      5.6      0.0    141.9       61    424.2    425.0      100     0.000     0.000     0.000     0.000      107        0        0        0        2        4        0    23.878       96     40.1    9.565   -9.900     1.69    0.000    0.000       30        8     2054  Maize_Irrigated_Cahul_10May_Optimal_26_MOHC.PRM
  Tot(75)       10        5     2055    133.7    668.8   1561.4   443.00    426.0    120.7     13.0     34.5      0.0    128.6       55    453.1    454.5      100     0.000     0.000     0.000     0.000      107        0        0        0        7        7        0    23.623       95     40.1    9.476   -9.900     1.63    0.000    0.000       30        8     2055  Maize_Irrigated_Cahul_10May_Optimal_26_MOHC.PRM
  Tot(76)       10        5     2056    111.8    692.9   1586.2   442.00    469.1    106.0      5.8      0.0      0.0    203.0       80    454.9    453.7      100     0.000     0.000     0.000     0.000      107        0        0        0        3        7        0    23.182       94     40.1    9.297   -9.900     1.41    0.000    0.000       30        8     2056  Maize_Irrigated_Cahul_10May_Optimal_26_MOHC.PRM
  Tot(77)       10        5     2057    124.8    650.3   1555.4   442.00    426.5    116.4      8.4      0.0      0.0    199.0       82    423.3    422.5      100     0.000     0.000     0.000     0.000      107        0        0        0        6        6        0    23.388       94     40.1    9.377   -9.900     1.51    0.000    0.000       30        8     2057  Maize_Irrigated_Cahul_10May_Optimal_26_MOHC.PRM
  Tot(78)       10        5     2058     59.2    659.7   1568.8   442.00    416.8     54.9      4.3      0.0      0.0    124.5       49    425.0    424.7      100     0.000     0.000     0.000     0.000      107        0        0        0        5        8        0    23.019       93     40.1    9.228   -9.900     1.68    0.000    0.000       30        8     2058  Maize_Irrigated_Cahul_10May_Optimal_26_MOHC.PRM
  Tot(79)       10        5     2059     73.4    666.7   1539.4   442.00    408.3     71.4      2.0      0.0      0.0    121.1       50    438.9    439.5      100     0.000     0.000     0.000     0.000      107        0        0        0        6        7        0    23.256       94     40.1    9.315   -9.900     1.66    0.000    0.000       30        8     2059  Maize_Irrigated_Cahul_10May_Optimal_26_MOHC.PRM
  Tot(80)       10        5     2060     87.5    597.8   1437.7   442.00    378.4     83.8      3.7      8.0      0.0    111.1       59    419.5    418.5      100     0.000     0.000     0.000     0.000      107        0        0        0        8        4        0    23.770       96     40.1    9.528   -9.900     1.80    0.000    0.000       30        8     2060  Maize_Irrigated_Cahul_10May_Optimal_26_MOHC.PRM
  Tot(81)       10        5     2061     48.0    656.2   1563.5   441.00    420.9     47.9      0.1      0.0      0.0    115.9       49    435.2    436.6      100     0.000     0.000     0.000     0.000      107        0        0        0        3        7        0    23.334       94     26.8    6.249   -9.900     1.13    0.000    0.000       30        8     2061  Maize_Irrigated_Cahul_10May_Optimal_26_MOHC.PRM
  Tot(82)       10        5     2062     79.5    663.5   1541.1   441.00    386.6     79.0      0.5      0.0      0.0    128.7       48    415.9    415.1      100     0.000     0.000     0.000     0.000      107        0        0        0        4        8        0    22.990       93     40.1    9.219   -9.900     1.69    0.000    0.000       30        8     2062  Maize_Irrigated_Cahul_10May_Optimal_26_MOHC.PRM
  Tot(83)       10        5     2063    157.6    630.9   1531.7   441.00    381.5    144.0     13.6     16.3      0.0    134.1       66    442.3    443.9      100     0.000     0.000     0.000     0.000      107        0        0        0        6        5        0    23.793       96     40.1    9.537   -9.900     1.65    0.000    0.000       30        8     2063  Maize_Irrigated_Cahul_10May_Optimal_26_MOHC.PRM
  Tot(84)       10        5     2064    118.9    646.3   1573.4   440.00    397.1    112.4      6.5      9.8      0.0    130.1       61    446.6    444.5      100     0.000     0.000     0.000     0.000      107        0        0        0        4        5        0    23.883       96     40.1    9.578   -9.900     1.66    0.000    0.000       30        8     2064  Maize_Irrigated_Cahul_10May_Optimal_26_MOHC.PRM
  Tot(85)       10        5     2065     52.4    745.0   1625.6   440.00    494.3     52.4      0.0      0.0      0.0    146.9       51    481.3    482.4      100     0.000     0.000     0.000     0.000      107        0        0        0        1       10        0    22.990       92     38.6    8.865   -9.900     1.41    0.000    0.000       30        8     2065  Maize_Irrigated_Cahul_10May_Optimal_26_MOHC.PRM
  Tot(86)       10        5     2066    282.6    596.3   1463.5   440.00    321.1    175.2    107.4      5.9      0.0    134.5       66    409.4    410.1      100     0.000     0.000     0.000     0.000      107        0        0        0        7        5        0    23.456       96     40.1    9.401   -9.900     1.73    0.000    0.000       30        8     2066  Maize_Irrigated_Cahul_10May_Optimal_26_MOHC.PRM
  Tot(87)       10        5     2067     81.1    651.5   1510.9   439.00    382.3     72.2      8.9      0.0      0.0    111.3       45    421.9    420.5      100     0.000     0.000     0.000     0.000      107        0        0        0        3        9        0    22.844       92     40.1    9.164   -9.900     1.72    0.000    0.000       30        8     2067  Maize_Irrigated_Cahul_10May_Optimal_26_MOHC.PRM
  Tot(88)       10        5     2068    226.7    554.1   1381.5   439.00    238.8    182.7     44.0      1.1      0.0    140.4       68    359.9    361.0      100     0.000     0.000     0.000     0.000      107        0        0        0        9        4        0    23.445       95     40.1    9.398   -9.900     1.88    0.000    0.000       30        8     2068  Maize_Irrigated_Cahul_10May_Optimal_26_MOHC.PRM
  Tot(89)       10        5     2069    104.6    576.2   1445.9   438.00    334.3    102.6      2.0      0.0      0.0    116.1       62    401.3    400.7      100     0.000     0.000     0.000     0.000      107        0        0        0        7        4        0    23.880       96     40.1    9.574   -9.900     1.85    0.000    0.000       30        8     2069  Maize_Irrigated_Cahul_10May_Optimal_26_MOHC.PRM
  Tot(90)       10        5     2070     60.4    601.8   1462.7   437.00    396.6     52.8      7.6     22.3      0.0     97.7       48    410.8    411.0      100     0.000     0.000     0.000     0.000      107        0        0        0        6        7        0    23.347       94     40.1    9.363   -9.900     1.84    0.000    0.000       30        8     2070  Maize_Irrigated_Cahul_10May_Optimal_26_MOHC.PRM
  Tot(91)       10        5     2071    247.2    573.5   1413.2   437.00    254.6    191.4     55.8      7.5      0.0    125.7       58    369.0    369.8      100     0.000     0.000     0.000     0.000      107        0        0        0        5        5        0    23.076       96     40.1    9.249   -9.900     1.87    0.000    0.000       30        8     2071  Maize_Irrigated_Cahul_10May_Optimal_26_MOHC.PRM
  Tot(92)       10        5     2072     96.2    590.3   1407.6   436.00    345.0     93.6      2.6      3.0      0.0    118.7       58    397.2    396.1      100     0.000     0.000     0.000     0.000      107        0        0        0        7        5        0    23.685       96     40.1    9.498   -9.900     1.84    0.000    0.000       30        8     2072  Maize_Irrigated_Cahul_10May_Optimal_26_MOHC.PRM
  Tot(93)       10        5     2073     54.1    699.7   1636.6   436.00    459.8     54.0      0.1      0.0      0.0    138.0       52    453.6    453.2      100     0.000     0.000     0.000     0.000      107        0        0        0        1        9        0    22.995       93     40.1    9.223   -9.900     1.56    0.000    0.000       30        8     2073  Maize_Irrigated_Cahul_10May_Optimal_26_MOHC.PRM
  Tot(94)       10        5     2074    100.7    629.6   1400.4   435.00    396.9     98.1      2.6      0.0      0.0    178.3       73    400.3    401.7      100     0.000     0.000     0.000     0.000      107        0        0        0        8        7        0    22.925       94     40.1    9.191   -9.900     1.59    0.000    0.000       30        8     2074  Maize_Irrigated_Cahul_10May_Optimal_26_MOHC.PRM
  Tot(95)       10        5     2075    115.2    580.4   1450.2   435.00    326.5    114.6      0.6      0.9      0.0    131.2       67    394.0    394.7      100     0.000     0.000     0.000     0.000      107        0        0        0        6        4        0    23.552       96     40.1    9.443   -9.900     1.80    0.000    0.000       30        8     2075  Maize_Irrigated_Cahul_10May_Optimal_26_MOHC.PRM
  Tot(96)       10        5     2076     78.6    716.7   1642.9   434.00    459.9     77.7      0.9      0.0      0.0    132.1       53    486.9    485.6      100     0.000     0.000     0.000     0.000      107        0        0        0        3        7        0    23.494       95     29.0    6.805   -9.900     1.10    0.000    0.000       30        8     2076  Maize_Irrigated_Cahul_10May_Optimal_26_MOHC.PRM
  Tot(97)       10        5     2077     75.0    702.9   1517.6   433.00    451.3     74.9      0.1      0.0      0.0    137.3       55    469.5    469.9      100     0.000     0.000     0.000     0.000      107        0        0        0        3        8        0    23.164       94     40.1    9.288   -9.900     1.53    0.000    0.000       30        8     2077  Maize_Irrigated_Cahul_10May_Optimal_26_MOHC.PRM
  Tot(98)       10        5     2078    158.1    614.4   1552.6   433.00    325.6    157.5      0.6      0.0      0.0    149.2       70    416.1    415.9      100     0.000     0.000     0.000     0.000      107        0        0        0        2        4        0    23.917       96     40.1    9.588   -9.900     1.70    0.000    0.000       30        8     2078  Maize_Irrigated_Cahul_10May_Optimal_26_MOHC.PRM
  Tot(99)       10        5     2079    113.7    648.4   1524.5   432.00    424.2    103.6     10.1      0.0      0.0    190.2       76    417.9    417.5      100     0.000     0.000     0.000     0.000      107        0        0        0        5        7        0    22.996       93     40.1    9.217   -9.900     1.52    0.000    0.000       30        8     2079  Maize_Irrigated_Cahul_10May_Optimal_26_MOHC.PRM
 Tot(100)       10        5     2080     91.2    650.8   1502.4   432.00    414.5     90.2      1.0      3.0      0.0    126.6       61    457.3    457.8      100     0.000     0.000     0.000     0.000      107        0        0        0        6        5        0    23.743       96     40.1    9.518   -9.900     1.63    0.000    0.000       30        8     2080  Maize_Irrigated_Cahul_10May_Optimal_26_MOHC.PRM
 Tot(101)       10        5     2081     86.5    705.0   1667.7   431.00    514.5     85.0      1.5      0.0      0.0    227.3       81    449.2    448.0      100     0.000     0.000     0.000     0.000      107        0        0        0        1        9        0    22.925       92     40.1    9.192   -9.900     1.36    0.000    0.000       30        8     2081  Maize_Irrigated_Cahul_10May_Optimal_26_MOHC.PRM
 Tot(102)       10        5     2082     66.2    707.0   1594.5   431.00    486.1     64.5      1.7      7.4      0.0    137.6       58    486.0    486.8      100     0.000     0.000     0.000     0.000      107        0        0        0        3        8        0    23.296       94     40.1    9.344   -9.900     1.50    0.000    0.000       30        8     2082  Maize_Irrigated_Cahul_10May_Optimal_26_MOHC.PRM
 Tot(103)       10        5     2083    101.8    682.6   1595.9   430.00    473.6     95.3      6.5      0.0      0.0    207.5       78    439.8    441.8      100     0.000     0.000     0.000     0.000      107        0        0        0        2        9        0    22.782       92     40.1    9.139   -9.900     1.41    0.000    0.000       30        8     2083  Maize_Irrigated_Cahul_10May_Optimal_26_MOHC.PRM
 Tot(104)       10        5     2084    102.0    663.7   1574.4   429.00    390.7    101.4      0.6      0.0      0.0    109.4       50    463.9    464.1      100     0.000     0.000     0.000     0.000      107        0        0        0        5        5        0    23.554       95     40.1    9.445   -9.900     1.65    0.000    0.000       30        8     2084  Maize_Irrigated_Cahul_10May_Optimal_26_MOHC.PRM
 Tot(105)       10        5     2085     64.6    596.6   1485.7   429.00    352.4     64.6      0.0      0.0      0.0     96.2       46    400.8    400.4      100     0.000     0.000     0.000     0.000      107        0        0        0        6        6        0    23.419       95     40.1    9.394   -9.900     1.89    0.000    0.000       30        8     2085  Maize_Irrigated_Cahul_10May_Optimal_26_MOHC.PRM
 Tot(106)       10        5     2086    137.0    587.5   1404.4   428.00    338.2    122.2     14.8     22.3      0.0    114.2       59    407.5    406.6      100     0.000     0.000     0.000     0.000      107        0        0        0        7        4        0    23.539       96     40.1    9.438   -9.900     1.81    0.000    0.000       30        8     2086  Maize_Irrigated_Cahul_10May_Optimal_26_MOHC.PRM
 Tot(107)       10        5     2087     97.1    704.6   1637.4   428.00    417.5     94.0      3.1      0.2      0.0    133.2       49    457.7    456.9      100     0.000     0.000     0.000     0.000      107        0        0        0        2        8        0    23.132       93     40.1    9.276   -9.900     1.57    0.000    0.000       30        8     2087  Maize_Irrigated_Cahul_10May_Optimal_26_MOHC.PRM
 Tot(108)       10        5     2088    112.4    589.5   1419.6   427.00    359.7    108.7      3.7      8.8      0.0    110.7       60    416.9    419.9      100     0.000     0.000     0.000     0.000      107        0        0        0       10        5        0    23.337       96     40.1    9.355   -9.900     1.77    0.000    0.000       30        8     2088  Maize_Irrigated_Cahul_10May_Optimal_26_MOHC.PRM
 Tot(109)       10        5     2089    150.9    600.9   1540.4   427.00    295.1    145.4      5.5      0.0      0.0    134.1       58    388.9    386.3      100     0.000     0.000     0.000     0.000      107        0        0        0        2        6        0    23.492       95     40.1    9.415   -9.900     1.80    0.000    0.000       30        8     2089  Maize_Irrigated_Cahul_10May_Optimal_26_MOHC.PRM
 Tot(110)       10        5     2090     65.9    666.1   1602.1   426.00    408.2     64.9      1.0      2.4      0.0    112.3       46    437.8    437.1      100     0.000     0.000     0.000     0.000      107        0        0        0        2        8        0    23.176       94     40.1    9.295   -9.900     1.69    0.000    0.000       30        8     2090  Maize_Irrigated_Cahul_10May_Optimal_26_MOHC.PRM
 Tot(111)       10        5     2091    139.8    601.8   1511.4   425.00    307.6    132.8      7.0      1.5      0.0    120.2       54    396.5    397.3      100     0.000     0.000     0.000     0.000      107        0        0        0        3        5        0    23.392       95     40.1    9.371   -9.900     1.81    0.000    0.000       30        8     2091  Maize_Irrigated_Cahul_10May_Optimal_26_MOHC.PRM
 Tot(112)       10        5     2092     91.4    576.9   1423.6   425.00    328.2     90.2      1.2      0.5      0.0    107.7       54    389.4    388.6      100     0.000     0.000     0.000     0.000      107        0        0        0       10        4        0    23.246       95     40.1    9.317   -9.900     1.87    0.000    0.000       30        8     2092  Maize_Irrigated_Cahul_10May_Optimal_26_MOHC.PRM
 Tot(113)       10        5     2093     75.3    637.6   1520.2   424.00    379.4     75.0      0.3      0.0      0.0    109.6       49    430.8    432.4      100     0.000     0.000     0.000     0.000      107        0        0        0        4        6        0    23.291       94     40.1    9.340   -9.900     1.73    0.000    0.000       30        8     2093  Maize_Irrigated_Cahul_10May_Optimal_26_MOHC.PRM
 Tot(114)       10        5     2094    167.3    570.6   1411.7   424.00    356.8    112.0     55.3     35.7      0.0    115.8       63    398.6    397.5      100     0.000     0.000     0.000     0.000      107        0        0        0        7        5        0    23.537       96     40.1    9.437   -9.900     1.83    0.000    0.000       30        8     2094  Maize_Irrigated_Cahul_10May_Optimal_26_MOHC.PRM
 Tot(115)       10        5     2095    140.1    603.1   1439.1   423.00    320.5    138.9      1.2      0.5      0.0    116.9       61    420.9    420.4      100     0.000     0.000     0.000     0.000      107        0        0        0        9        2        0    23.575       97     40.1    9.449   -9.900     1.76    0.000    0.000       30        8     2095  Maize_Irrigated_Cahul_10May_Optimal_26_MOHC.PRM
 Tot(116)       10        5     2096     55.8    716.7   1648.5   423.00    555.7     55.7      0.1      0.0      0.0    251.7       83    439.8    440.1      100     0.000     0.000     0.000     0.000      107        0        0        0        1       10        0    22.341       90     40.1    8.959   -9.900     1.30    0.000    0.000       30        8     2096  Maize_Irrigated_Cahul_10May_Optimal_26_MOHC.PRM
 Tot(117)       10        5     2097     75.1    623.2   1524.2   422.00    389.7     74.8      0.3      0.0      0.0    111.7       55    435.4    437.5      100     0.000     0.000     0.000     0.000      107        0        0        0        5        5        0    23.560       96     40.1    9.443   -9.900     1.73    0.000    0.000       30        8     2097  Maize_Irrigated_Cahul_10May_Optimal_26_MOHC.PRM
 Tot(118)       10        5     2098     79.0    600.9   1334.1   422.00    368.7     70.3      8.7     12.1      0.0     98.3       47    406.6    404.0      100     0.000     0.000     0.000     0.000      107        0        0        0       11        7        0    23.108       95     40.1    9.265   -9.900     1.83    0.000    0.000       30        8     2098  Maize_Irrigated_Cahul_10May_Optimal_26_MOHC.PRM
 Tot(119)       10        5     2099     67.3    747.0   1618.9   421.00    521.0     55.2     12.1     16.3      0.0    128.3       50    511.0    511.4      100     0.000     0.000     0.000     0.000      107        0        0        0        5        9        0    22.856       93     40.1    9.170   -9.900     1.43    0.000    0.000       30        8     2099  Maize_Irrigated_Cahul_10May_Optimal_26_MOHC.PRM
