AquaCrop 7.0 (August 2022) - Output created on (date) : 07-07-2023   at (time) : 12:46:34

    RunNr     Day1   Month1    Year1     Rain      ETo       GD     CO2      Irri   Infilt   Runoff    Drain   Upflow        E     E/Ex       Tr      TrW   Tr/Trx    SaltIn   SaltOut    SaltUp  SaltProf     Cycle   SaltStr  FertStr  WeedStr  TempStr   ExpStr   StoStr  BioMass  Brelative   HI    Y(dry)  Y(fresh)    WPet      Bin     Bout     DayN   MonthN    YearN
                                           mm       mm  degC.day    ppm        mm       mm       mm       mm       mm       mm        %       mm       mm        %    ton/ha    ton/ha    ton/ha    ton/ha      days       %        %        %        %        %        %    ton/ha        %       %    ton/ha   ton/ha    kg/m3   ton/ha   ton/ha
   Tot(1)       10        5     1981    146.8    507.3   1246.2   340.11    163.4    145.0      1.8      0.6      0.0     84.2       39    300.6    303.3      100     0.000     0.000     0.000     0.000      107        0        0        0       10        5        0    20.584       95     40.1    8.245   -9.900     2.14    0.000    0.000       30        8     1981  Maize_Irrigated_Cahul_10May_Optimal_85_MOHC.PRM
   Tot(2)       10        5     1982    232.4    490.7   1271.5   341.22     81.1    228.8      3.6      0.0      0.0    107.7       49    283.3    282.7      100     0.000     0.000     0.000     0.000      107        0        0        0        6        3        0    21.328       95     40.0    8.536   -9.900     2.18    0.000    0.000       30        8     1982  Maize_Irrigated_Cahul_10May_Optimal_85_MOHC.PRM
   Tot(3)       10        5     1983    291.5    495.5   1304.3   342.84     78.7    260.5     31.0     28.5      0.0    108.2       50    290.0    290.0      100     0.000     0.000     0.000     0.000      107        0        0        0        6        2        0    21.473       96     40.1    8.602   -9.900     2.16    0.000    0.000       30        8     1983  Maize_Irrigated_Cahul_10May_Optimal_85_MOHC.PRM
   Tot(4)       10        5     1984    204.1    468.4   1129.3   344.40    124.3    199.2      4.9     10.1      0.0    127.8       67    270.7    270.2      100     0.000     0.000     0.000     0.000      107        0        0        0       12        2        0    20.467       97     40.1    8.202   -9.900     2.06    0.000    0.000       30        8     1984  Maize_Irrigated_Cahul_10May_Optimal_85_MOHC.PRM
   Tot(5)       10        5     1985    291.0    486.1   1240.6   345.87    109.5    263.4     27.6     47.0      0.0    120.8       60    286.1    286.2      100     0.000     0.000     0.000     0.000      107        0        0        0        9        1        0    20.927       97     40.0    8.371   -9.900     2.06    0.000    0.000       30        8     1985  Maize_Irrigated_Cahul_10May_Optimal_85_MOHC.PRM
   Tot(6)       10        5     1986    174.4    542.4   1329.9   347.19    194.5    169.8      4.6      0.0      0.0    108.7       48    324.2    323.7      100     0.000     0.000     0.000     0.000      107        0        0        0        5        5        0    21.345       95     40.1    8.550   -9.900     1.98    0.000    0.000       30        8     1986  Maize_Irrigated_Cahul_10May_Optimal_85_MOHC.PRM
   Tot(7)       10        5     1987    239.8    498.8   1219.8   348.98    149.5    217.5     22.3      0.0      0.0    143.6       71    304.7    305.7      100     0.000     0.000     0.000     0.000      107        0        0        0       12        5        0    20.863       95     40.0    8.355   -9.900     1.86    0.000    0.000       30        8     1987  Maize_Irrigated_Cahul_10May_Optimal_85_MOHC.PRM
   Tot(8)       10        5     1988    149.3    506.3   1314.4   351.45    241.5    147.1      2.2      4.6      0.0    126.1       71    341.0    339.6      100     0.000     0.000     0.000     0.000      107        0        0        0        6        3        0    22.228       97     40.0    8.900   -9.900     1.91    0.000    0.000       30        8     1988  Maize_Irrigated_Cahul_10May_Optimal_85_MOHC.PRM
   Tot(9)       10        5     1989    210.2    497.8   1242.2   352.89    175.4    202.5      7.7      0.0      0.0    149.5       74    305.4    308.0      100     0.000     0.000     0.000     0.000      107        0        0        0       13        5        0    21.462       95     40.1    8.598   -9.900     1.89    0.000    0.000       30        8     1989  Maize_Irrigated_Cahul_10May_Optimal_85_MOHC.PRM
  Tot(10)       10        5     1990    134.5    533.2   1221.9   354.16    230.7    132.6      1.9      0.0      0.0    113.6       54    334.4    332.4      100     0.000     0.000     0.000     0.000      107        0        0        0       13        4        0    21.821       96     40.1    8.746   -9.900     1.95    0.000    0.000       30        8     1990  Maize_Irrigated_Cahul_10May_Optimal_85_MOHC.PRM
  Tot(11)       10        5     1991    366.2    440.5   1237.7   355.48     64.9    324.5     41.7     63.1      0.0    119.2       75    294.6    295.4      100     0.000     0.000     0.000     0.000      107        0        0        0       14        0        0    22.523       98     40.0    9.015   -9.900     2.18    0.000    0.000       30        8     1991  Maize_Irrigated_Cahul_10May_Optimal_85_MOHC.PRM
  Tot(12)       10        5     1992    169.4    527.1   1280.4   356.27    228.6    166.1      3.3      0.0      0.0    128.8       69    349.5    348.2      100     0.000     0.000     0.000     0.000      107        0        0        0       13        3        0    22.241       97     40.1    8.912   -9.900     1.86    0.000    0.000       30        8     1992  Maize_Irrigated_Cahul_10May_Optimal_85_MOHC.PRM
  Tot(13)       10        5     1993    217.3    512.9   1209.9   356.95    191.4    201.3     16.0     26.7      0.0    128.8       65    311.9    315.0      100     0.000     0.000     0.000     0.000      107        0        0        0       10        2        0    20.745       97     40.0    8.305   -9.900     1.88    0.000    0.000       30        8     1993  Maize_Irrigated_Cahul_10May_Optimal_85_MOHC.PRM
  Tot(14)       10        5     1994    230.6    531.5   1344.3   358.63    248.6    180.6     50.0      4.6      0.0    164.6       74    328.3    326.1      100     0.000     0.000     0.000     0.000      107        0        0        0        8        5        0    21.859       94     40.0    8.746   -9.900     1.77    0.000    0.000       30        8     1994  Maize_Irrigated_Cahul_10May_Optimal_85_MOHC.PRM
  Tot(15)       10        5     1995    166.2    526.5   1355.9   360.62    211.4    154.6     11.6      6.3      0.0    102.7       48    333.8    335.1      100     0.000     0.000     0.000     0.000      107        0        0        0        6        5        0    22.323       95     40.1    8.947   -9.900     2.05    0.000    0.000       30        8     1995  Maize_Irrigated_Cahul_10May_Optimal_85_MOHC.PRM
  Tot(16)       10        5     1996    151.7    560.7   1318.1   362.37    259.6    133.8     17.9      0.0      0.0    121.5       49    325.3    323.8      100     0.000     0.000     0.000     0.000      107        0        0        0        7        8        0    21.194       93     40.1    8.495   -9.900     1.90    0.000    0.000       30        8     1996  Maize_Irrigated_Cahul_10May_Optimal_85_MOHC.PRM
  Tot(17)       10        5     1997    425.5    464.4   1256.1   363.47      0.0    386.3     39.2      1.3      0.0    126.9       65    282.2    283.1      100     0.000     0.000     0.000     0.000      107        0        0        0       10        1        0    22.379       97     40.0    8.955   -9.900     2.19    0.000    0.000       30        8     1997  Maize_Irrigated_Cahul_10May_Optimal_85_MOHC.PRM
  Tot(18)       10        5     1998    211.3    512.8   1294.4   366.50    212.5    200.7     10.6      4.2      0.0    126.5       68    335.0    335.6      100     0.000     0.000     0.000     0.000      107        0        0        0       11        1        0    22.023       97     40.1    8.821   -9.900     1.91    0.000    0.000       30        8     1998  Maize_Irrigated_Cahul_10May_Optimal_85_MOHC.PRM
  Tot(19)       10        5     1999    300.7    547.1   1408.0   368.14    137.8    248.7     52.0      0.0      0.0    119.8       53    341.7    340.4      100     0.000     0.000     0.000     0.000      107        0        0        0        6        4        0    22.573       95     40.1    9.045   -9.900     1.96    0.000    0.000       30        8     1999  Maize_Irrigated_Cahul_10May_Optimal_85_MOHC.PRM
  Tot(20)       10        5     2000     73.7    615.7   1340.3   369.41    418.6     72.3      1.4      0.0      0.0    229.9       80    346.0    345.7      100     0.000     0.000     0.000     0.000      107        0        0        0        6        9        0    20.916       92     40.1    8.382   -9.900     1.46    0.000    0.000       30        8     2000  Maize_Irrigated_Cahul_10May_Optimal_85_MOHC.PRM
  Tot(21)       10        5     2001    197.2    553.7   1323.0   371.07    244.2    168.3     28.9     19.7      0.0    119.3       57    359.5    360.6      100     0.000     0.000     0.000     0.000      107        0        0        0        8        3        0    22.670       96     40.1    9.086   -9.900     1.90    0.000    0.000       30        8     2001  Maize_Irrigated_Cahul_10May_Optimal_85_MOHC.PRM
  Tot(22)       10        5     2002    295.7    563.3   1406.9   373.16    222.9    245.7     50.0      0.0      0.0    197.1       80    339.9    338.3      100     0.000     0.000     0.000     0.000      107        0        0        0        5        8        0    22.155       93     40.1    8.885   -9.900     1.65    0.000    0.000       30        8     2002  Maize_Irrigated_Cahul_10May_Optimal_85_MOHC.PRM
  Tot(23)       10        5     2003    102.9    601.8   1428.1   375.80    385.0    102.0      0.9      0.0      0.0    223.7       79    338.6    336.4      100     0.000     0.000     0.000     0.000      107        0        0        0        3        8        0    21.740       92     40.0    8.697   -9.900     1.55    0.000    0.000       30        8     2003  Maize_Irrigated_Cahul_10May_Optimal_85_MOHC.PRM
  Tot(24)       10        5     2004    274.3    515.6   1240.7   377.49    150.8    249.5     24.8      2.4      0.0    131.9       65    326.2    328.4      100     0.000     0.000     0.000     0.000      107        0        0        0       11        4        0    22.397       96     40.0    8.959   -9.900     1.96    0.000    0.000       30        8     2004  Maize_Irrigated_Cahul_10May_Optimal_85_MOHC.PRM
  Tot(25)       10        5     2005    357.3    523.6   1316.6   379.80     65.7    323.3     34.0      6.3      0.0    138.5       66    328.1    328.0      100     0.000     0.000     0.000     0.000      107        0        0        0        7        2        0    22.899       97     40.0    9.163   -9.900     1.96    0.000    0.000       30        8     2005  Maize_Irrigated_Cahul_10May_Optimal_85_MOHC.PRM
  Tot(26)       10        5     2006    170.7    575.9   1338.1   381.90    245.8    159.1     11.6     12.8      0.0    106.1       45    358.2    360.5      100     0.000     0.000     0.000     0.000      107        0        0        0        7        6        0    22.152       94     40.1    8.880   -9.900     1.91    0.000    0.000       30        8     2006  Maize_Irrigated_Cahul_10May_Optimal_85_MOHC.PRM
  Tot(27)       10        5     2007    117.6    680.9   1520.4   383.77    437.2    103.7     13.9      0.0      0.0    221.4       73    404.8    403.0      100     0.000     0.000     0.000     0.000      107        0        0        0        1        9        0    21.943       91     40.1    8.796   -9.900     1.40    0.000    0.000       30        8     2007  Maize_Irrigated_Cahul_10May_Optimal_85_MOHC.PRM
  Tot(28)       10        5     2008    142.7    609.1   1384.2   385.59    378.5    138.5      4.2      0.0      0.0    210.8       84    378.8    380.2      100     0.000     0.000     0.000     0.000      107        0        0        0        4        7        0    22.259       93     40.1    8.919   -9.900     1.51    0.000    0.000       30        8     2008  Maize_Irrigated_Cahul_10May_Optimal_85_MOHC.PRM
  Tot(29)       10        5     2009    135.2    618.6   1416.0   387.37    367.8    129.3      5.9      0.0      0.0    209.5       77    371.0    369.0      100     0.000     0.000     0.000     0.000      107        0        0        0        3        7        0    22.219       92     40.1    8.899   -9.900     1.53    0.000    0.000       30        8     2009  Maize_Irrigated_Cahul_10May_Optimal_85_MOHC.PRM
  Tot(30)       10        5     2010    257.4    553.9   1446.3   389.85    169.0    227.8     29.6      1.0      0.0    130.3       58    344.2    345.7      100     0.000     0.000     0.000     0.000      107        0        0        0        7        2        0    22.646       96     40.0    9.058   -9.900     1.91    0.000    0.000       30        8     2010  Maize_Irrigated_Cahul_10May_Optimal_85_MOHC.PRM
  Tot(31)       10        5     2011    170.0    575.1   1394.0   391.63    236.2    161.5      8.5      2.2      0.0    124.7       53    351.9    349.8      100     0.000     0.000     0.000     0.000      107        0        0        0        4        4        0    22.398       95     40.1    8.978   -9.900     1.88    0.000    0.000       30        8     2011  Maize_Irrigated_Cahul_10May_Optimal_85_MOHC.PRM
  Tot(32)       10        5     2012    235.5    644.6   1476.6   393.82    300.5    221.3     14.2      8.1      0.0    155.0       65    426.0    426.9      100     0.000     0.000     0.000     0.000      107        0        0        0        5        4        0    23.221       96     40.0    9.299   -9.900     1.60    0.000    0.000       30        8     2012  Maize_Irrigated_Cahul_10May_Optimal_85_MOHC.PRM
  Tot(33)       10        5     2013    245.8    572.9   1442.3   396.48    284.9    210.1     35.7      0.0      0.0    201.5       85    357.7    358.4      100     0.000     0.000     0.000     0.000      107        0        0        0        3        4        0    22.962       95     40.1    9.198   -9.900     1.64    0.000    0.000       30        8     2013  Maize_Irrigated_Cahul_10May_Optimal_85_MOHC.PRM
  Tot(34)       10        5     2014    231.2    553.0   1388.0   398.55    199.9    222.3      8.9      8.0      0.0    137.8       67    360.4    359.8      100     0.000     0.000     0.000     0.000      107        0        0        0        4        3        0    23.158       97     40.0    9.274   -9.900     1.86    0.000    0.000       30        8     2014  Maize_Irrigated_Cahul_10May_Optimal_85_MOHC.PRM
  Tot(35)       10        5     2015    138.4    632.1   1420.5   402.00    381.3    127.7     10.7      0.0      0.0    210.7       77    379.7    378.9      100     0.000     0.000     0.000     0.000      107        0        0        0        4        7        0    22.197       93     40.1    8.895   -9.900     1.51    0.000    0.000       30        8     2015  Maize_Irrigated_Cahul_10May_Optimal_85_MOHC.PRM
  Tot(36)       10        5     2016    181.4    575.2   1403.1   404.00    271.3    177.3      4.1      1.2      0.0    145.2       71    386.2    386.8      100     0.000     0.000     0.000     0.000      107        0        0        0        8        4        0    23.274       96     40.1    9.331   -9.900     1.76    0.000    0.000       30        8     2016  Maize_Irrigated_Cahul_10May_Optimal_85_MOHC.PRM
  Tot(37)       10        5     2017    261.1    575.3   1379.0   407.00    172.5    214.9     46.2      1.3      0.0    107.5       48    364.2    365.3      100     0.000     0.000     0.000     0.000      107        0        0        0        6        4        0    22.943       95     40.1    9.194   -9.900     1.95    0.000    0.000       30        8     2017  Maize_Irrigated_Cahul_10May_Optimal_85_MOHC.PRM
  Tot(38)       10        5     2018    166.6    568.1   1494.6   410.00    213.4    150.5     16.1      0.0      0.0    119.4       46    325.0    323.1      100     0.000     0.000     0.000     0.000      107        0        0        0        2        6        0    22.520       93     40.1    9.020   -9.900     2.03    0.000    0.000       30        8     2018  Maize_Irrigated_Cahul_10May_Optimal_85_MOHC.PRM
  Tot(39)       10        5     2019    183.6    599.5   1473.9   413.00    277.6    179.4      4.2      1.9      0.0    158.1       68    381.2    382.1      100     0.000     0.000     0.000     0.000      107        0        0        0        2        4        0    23.259       96     40.1    9.316   -9.900     1.73    0.000    0.000       30        8     2019  Maize_Irrigated_Cahul_10May_Optimal_85_MOHC.PRM
  Tot(40)       10        5     2020     78.4    677.0   1540.3   416.00    423.3     78.1      0.3      0.0      0.0    125.5       52    454.8    453.8      100     0.000     0.000     0.000     0.000      107        0        0        0        3        7        0    23.270       95     40.1    9.331   -9.900     1.61    0.000    0.000       30        8     2020  Maize_Irrigated_Cahul_10May_Optimal_85_MOHC.PRM
  Tot(41)       10        5     2021     65.9    690.3   1525.2   419.00    439.5     62.5      3.4     11.8      0.0    129.1       48    441.5    441.7      100     0.000     0.000     0.000     0.000      107        0        0        0        5        9        0    22.721       92     40.1    9.109   -9.900     1.60    0.000    0.000       30        8     2021  Maize_Irrigated_Cahul_10May_Optimal_85_MOHC.PRM
  Tot(42)       10        5     2022     44.8    649.5   1454.5   422.00    407.3     44.4      0.4      0.0      0.0    104.5       44    428.1    428.2      100     0.000     0.000     0.000     0.000      107        0        0        0        9        7        0    23.028       94     40.1    9.226   -9.900     1.73    0.000    0.000       30        8     2022  Maize_Irrigated_Cahul_10May_Optimal_85_MOHC.PRM
  Tot(43)       10        5     2023     96.9    638.9   1444.0   425.00    445.9     95.7      1.2      0.0      0.0    191.8       83    424.7    428.2      100     0.000     0.000     0.000     0.000      107        0        0        0        8        7        0    22.728       94     40.1    9.114   -9.900     1.48    0.000    0.000       30        8     2023  Maize_Irrigated_Cahul_10May_Optimal_85_MOHC.PRM
  Tot(44)       10        5     2024     86.3    637.2   1496.7   428.00    416.1     83.0      3.3      9.6      0.0    133.0       62    436.3    432.5      100     0.000     0.000     0.000     0.000      107        0        0        0        5        6        0    23.453       95     40.1    9.401   -9.900     1.65    0.000    0.000       30        8     2024  Maize_Irrigated_Cahul_10May_Optimal_85_MOHC.PRM
  Tot(45)       10        5     2025    172.3    632.0   1526.0   431.00    317.4    167.6      4.7      6.9      0.0    144.0       62    417.0    418.5      100     0.000     0.000     0.000     0.000      107        0        0        0        2        4        0    23.687       96     24.6    5.818   -9.900     1.04    0.000    0.000       30        8     2025  Maize_Irrigated_Cahul_10May_Optimal_85_MOHC.PRM
  Tot(46)       10        5     2026    100.6    630.3   1499.5   435.00    392.2     96.6      4.0      3.3      0.0    144.0       63    418.5    416.3      100     0.000     0.000     0.000     0.000      107        0        0        0        5        6        0    23.538       95     40.1    9.432   -9.900     1.68    0.000    0.000       30        8     2026  Maize_Irrigated_Cahul_10May_Optimal_85_MOHC.PRM
  Tot(47)       10        5     2027    149.6    591.5   1496.8   438.00    306.5    136.9     12.7     17.7      0.0    117.3       54    388.9    389.8      100     0.000     0.000     0.000     0.000      107        0        0        0        2        6        0    23.486       95     40.1    9.417   -9.900     1.86    0.000    0.000       30        8     2027  Maize_Irrigated_Cahul_10May_Optimal_85_MOHC.PRM
  Tot(48)       10        5     2028     83.8    668.9   1502.6   442.00    443.5     83.4      0.4      0.0      0.0    141.2       65    461.8    460.7      100     0.000     0.000     0.000     0.000      107        0        0        0        8        7        0    23.243       94     40.1    9.324   -9.900     1.55    0.000    0.000       30        8     2028  Maize_Irrigated_Cahul_10May_Optimal_85_MOHC.PRM
  Tot(49)       10        5     2029    155.7    596.5   1518.6   445.00    303.0    152.4      3.3      2.2      0.0    135.8       64    397.1    398.0      100     0.000     0.000     0.000     0.000      107        0        0        0        3        5        0    23.796       96     40.1    9.541   -9.900     1.79    0.000    0.000       30        8     2029  Maize_Irrigated_Cahul_10May_Optimal_85_MOHC.PRM
  Tot(50)       10        5     2030    218.5    571.9   1405.0   449.00    305.7    190.8     27.7     33.1      0.0    144.7       79    397.7    397.5      100     0.000     0.000     0.000     0.000      107        0        0        0        8        3        0    24.037       97     40.1    9.637   -9.900     1.78    0.000    0.000       30        8     2030  Maize_Irrigated_Cahul_10May_Optimal_85_MOHC.PRM
  Tot(51)       10        5     2031    128.2    648.5   1590.7   452.00    405.2    117.8     10.4     24.5      0.0    151.3       65    431.4    432.7      100     0.000     0.000     0.000     0.000      107        0        0        0        4        7        0    23.684       95     40.1    9.492   -9.900     1.63    0.000    0.000       30        8     2031  Maize_Irrigated_Cahul_10May_Optimal_85_MOHC.PRM
  Tot(52)       10        5     2032    207.5    563.2   1438.5   456.00    260.3    171.9     35.6     14.9      0.0    125.7       63    375.1    375.2      100     0.000     0.000     0.000     0.000      107        0        0        0        7        6        0    23.556       95     40.1    9.443   -9.900     1.89    0.000    0.000       30        8     2032  Maize_Irrigated_Cahul_10May_Optimal_85_MOHC.PRM
  Tot(53)       10        5     2033    160.6    643.6   1567.0   460.00    375.4    151.4      9.2     17.0      0.0    158.5       68    422.7    422.4      100     0.000     0.000     0.000     0.000      107        0        0        0        3        5        0    23.874       95     40.1    9.573   -9.900     1.65    0.000    0.000       30        8     2033  Maize_Irrigated_Cahul_10May_Optimal_85_MOHC.PRM
  Tot(54)       10        5     2034     92.4    731.0   1612.5   464.00    510.0     91.6      0.8      0.0      0.0    159.3       72    518.7    517.1      100     0.000     0.000     0.000     0.000      107        0        0        0        4        6        0    23.924       95     19.1    4.568   -9.900     0.67    0.000    0.000       30        8     2034  Maize_Irrigated_Cahul_10May_Optimal_85_MOHC.PRM
  Tot(55)       10        5     2035     87.4    640.9   1484.9   468.00    409.3     85.5      1.9      4.1      0.0    122.8       61    447.4    448.1      100     0.000     0.000     0.000     0.000      107        0        0        0        8        5        0    23.874       96     40.1    9.574   -9.900     1.68    0.000    0.000       30        8     2035  Maize_Irrigated_Cahul_10May_Optimal_85_MOHC.PRM
  Tot(56)       10        5     2036     46.2    710.3   1627.6   472.00    465.9     46.2      0.0      0.0      0.0    125.8       49    468.8    469.6      100     0.000     0.000     0.000     0.000      107        0        0        0        3        8        0    23.504       93     18.2    4.273   -9.900     0.72    0.000    0.000       30        8     2036  Maize_Irrigated_Cahul_10May_Optimal_85_MOHC.PRM
  Tot(57)       10        5     2037    205.9    565.7   1356.9   476.00    279.9    157.6     48.3     37.1      0.0    100.6       54    385.9    386.8      100     0.000     0.000     0.000     0.000      107        0        0        0       11        6        0    23.424       95     40.1    9.390   -9.900     1.93    0.000    0.000       30        8     2037  Maize_Irrigated_Cahul_10May_Optimal_85_MOHC.PRM
  Tot(58)       10        5     2038    126.8    618.3   1576.0   481.00    342.1    125.1      1.7      0.0      0.0    129.6       63    420.3    419.4      100     0.000     0.000     0.000     0.000      107        0        0        0        6        4        0    24.123       96     40.1    9.673   -9.900     1.76    0.000    0.000       30        8     2038  Maize_Irrigated_Cahul_10May_Optimal_85_MOHC.PRM
  Tot(59)       10        5     2039     84.7    706.8   1630.6   485.00    450.8     84.4      0.3      0.0      0.0    149.9       60    466.4    466.1      100     0.000     0.000     0.000     0.000      107        0        0        0        3        8        0    23.691       94     40.1    9.504   -9.900     1.54    0.000    0.000       30        8     2039  Maize_Irrigated_Cahul_10May_Optimal_85_MOHC.PRM
  Tot(60)       10        5     2040     26.7    734.5   1679.6   489.00    503.5     26.7      0.0      0.0      0.0    161.0       53    448.1    447.7      100     0.000     0.000     0.000     0.000      107        0        0        0        1       11        0    22.787       90     40.1    9.139   -9.900     1.50    0.000    0.000       30        8     2040  Maize_Irrigated_Cahul_10May_Optimal_85_MOHC.PRM
  Tot(61)       10        5     2041     79.3    768.5   1651.3   494.00    566.7     75.0      4.3      0.0      0.0    217.0       78    502.1    501.8      100     0.000     0.000     0.000     0.000      107        0        0        0        3        9        0    23.269       92     40.1    9.328   -9.900     1.30    0.000    0.000       30        8     2041  Maize_Irrigated_Cahul_10May_Optimal_85_MOHC.PRM
  Tot(62)       10        5     2042    205.6    627.5   1526.3   499.00    367.5    162.4     43.2     64.0      0.0    126.8       60    422.5    424.0      100     0.000     0.000     0.000     0.000      107        0        0        0        4        5        0    24.108       95     40.1    9.665   -9.900     1.76    0.000    0.000       30        8     2042  Maize_Irrigated_Cahul_10May_Optimal_85_MOHC.PRM
  Tot(63)       10        5     2043     11.9    844.4   1708.0   504.00    621.5     11.9      0.0      0.0      0.0    192.0       57    522.8    522.3      100     0.000     0.000     0.000     0.000      107        0        0        0        2       13        0    22.530       89      9.9    2.226   -9.900     0.31    0.000    0.000       30        8     2043  Maize_Irrigated_Cahul_10May_Optimal_85_MOHC.PRM
  Tot(64)       10        5     2044    104.4    637.2   1576.7   508.00    360.9    101.6      2.8      1.8      0.0    122.3       55    420.9    421.0      100     0.000     0.000     0.000     0.000      107        0        0        0        3        5        0    24.010       96     40.1    9.628   -9.900     1.77    0.000    0.000       30        8     2044  Maize_Irrigated_Cahul_10May_Optimal_85_MOHC.PRM
  Tot(65)       10        5     2045    181.2    619.0   1453.6   513.00    345.4    154.1     27.1     14.3      0.0    112.2       56    424.3    424.3      100     0.000     0.000     0.000     0.000      107        0        0        0        5        5        0    23.938       96     40.1    9.598   -9.900     1.79    0.000    0.000       30        8     2045  Maize_Irrigated_Cahul_10May_Optimal_85_MOHC.PRM
  Tot(66)       10        5     2046    162.6    627.8   1605.8   519.00    367.3    148.6     14.0     33.6      0.0    136.2       67    430.6    431.1      100     0.000     0.000     0.000     0.000      107        0        0        0        3        5        0    24.422       96     40.1    9.792   -9.900     1.73    0.000    0.000       30        8     2046  Maize_Irrigated_Cahul_10May_Optimal_85_MOHC.PRM
  Tot(67)       10        5     2047     71.5    754.2   1733.2   524.00    491.9     67.1      4.4     10.0      0.0    148.7       52    480.1    479.0      100     0.000     0.000     0.000     0.000      107        0        0        0        1        8        0    23.817       94     14.5    3.455   -9.900     0.55    0.000    0.000       30        8     2047  Maize_Irrigated_Cahul_10May_Optimal_85_MOHC.PRM
  Tot(68)       10        5     2048     82.9    659.3   1659.8   529.00    405.0     81.1      1.8      0.0      0.0    121.1       56    444.3    444.1      100     0.000     0.000     0.000     0.000      107        0        0        0        1        6        0    24.300       96     40.1    9.743   -9.900     1.72    0.000    0.000       30        8     2048  Maize_Irrigated_Cahul_10May_Optimal_85_MOHC.PRM
  Tot(69)       10        5     2049     65.9    729.3   1631.3   535.00    453.5     63.0      2.9      0.0      0.0    137.0       49    459.3    462.1      100     0.000     0.000     0.000     0.000      107        0        0        0        3        9        0    23.064       92     40.1    9.250   -9.900     1.55    0.000    0.000       30        8     2049  Maize_Irrigated_Cahul_10May_Optimal_85_MOHC.PRM
  Tot(70)       10        5     2050     95.2    667.1   1624.5   541.00    390.3     93.7      1.5      0.0      0.0    136.2       55    423.8    420.3      100     0.000     0.000     0.000     0.000      107        0        0        0        5        7        0    23.861       94     40.1    9.568   -9.900     1.71    0.000    0.000       30        8     2050  Maize_Irrigated_Cahul_10May_Optimal_85_MOHC.PRM
  Tot(71)       10        5     2051     52.2    640.7   1564.2   546.00    418.1     51.7      0.5      1.6      0.0    106.8       54    441.2    442.1      100     0.000     0.000     0.000     0.000      107        0        0        0        4        6        0    24.055       95     31.0    7.446   -9.900     1.36    0.000    0.000       30        8     2051  Maize_Irrigated_Cahul_10May_Optimal_85_MOHC.PRM
  Tot(72)       10        5     2052    107.5    688.5   1562.1   552.00    446.7    106.7      0.8      2.3      0.0    164.5       74    466.0    465.9      100     0.000     0.000     0.000     0.000      107        0        0        0        4        6        0    24.253       95     40.1    9.728   -9.900     1.54    0.000    0.000       30        8     2052  Maize_Irrigated_Cahul_10May_Optimal_85_MOHC.PRM
  Tot(73)       10        5     2053    110.9    664.8   1656.5   558.00    382.4    107.9      3.0      2.4      0.0    131.4       58    438.5    439.1      100     0.000     0.000     0.000     0.000      107        0        0        0        2        6        0    24.229       95     18.3    4.442   -9.900     0.78    0.000    0.000       30        8     2053  Maize_Irrigated_Cahul_10May_Optimal_85_MOHC.PRM
  Tot(74)       10        5     2054    125.2    664.7   1667.3   564.00    423.3    110.5     14.7      5.6      0.0    157.1       74    452.2    452.0      100     0.000     0.000     0.000     0.000      107        0        0        0        2        6        0    24.243       95     37.2    9.014   -9.900     1.48    0.000    0.000       30        8     2054  Maize_Irrigated_Cahul_10May_Optimal_85_MOHC.PRM
  Tot(75)       10        5     2055     83.2    674.1   1601.7   571.00    442.7     82.4      0.8      6.4      0.0    121.6       63    473.0    471.7      100     0.000     0.000     0.000     0.000      107        0        0        0        5        5        0    24.426       96     33.7    8.231   -9.900     1.38    0.000    0.000       30        8     2055  Maize_Irrigated_Cahul_10May_Optimal_85_MOHC.PRM
  Tot(76)       10        5     2056    139.8    627.4   1547.4   577.00    380.5    121.6     18.2      0.0      0.0    184.3       82    401.7    403.6      100     0.000     0.000     0.000     0.000      107        0        0        0        3        6        0    23.737       94     40.1    9.518   -9.900     1.62    0.000    0.000       30        8     2056  Maize_Irrigated_Cahul_10May_Optimal_85_MOHC.PRM
  Tot(77)       10        5     2057    172.5    621.4   1558.3   583.00    295.7    169.2      3.3      3.4      0.0    134.7       64    407.7    406.9      100     0.000     0.000     0.000     0.000      107        0        0        0        5        3        0    24.460       96     40.1    9.805   -9.900     1.81    0.000    0.000       30        8     2057  Maize_Irrigated_Cahul_10May_Optimal_85_MOHC.PRM
  Tot(78)       10        5     2058     83.0    746.9   1767.3   590.00    475.8     81.7      1.3      3.2      0.0    160.0       58    472.1    471.5      100     0.000     0.000     0.000     0.000      107        0        0        0        2        8        0    23.907       94     12.7    3.035   -9.900     0.48    0.000    0.000       30        8     2058  Maize_Irrigated_Cahul_10May_Optimal_85_MOHC.PRM
  Tot(79)       10        5     2059    124.9    627.1   1662.0   597.00    286.6    124.0      0.9      0.0      0.0    107.5       45    387.3    389.0      100     0.000     0.000     0.000     0.000      107        0        0        0        2        6        0    24.030       94     40.1    9.630   -9.900     1.95    0.000    0.000       30        8     2059  Maize_Irrigated_Cahul_10May_Optimal_85_MOHC.PRM
  Tot(80)       10        5     2060     60.4    824.7   1856.0   604.00    641.1     59.4      1.0      0.0      0.0    278.9       84    495.5    493.0      100     0.000     0.000     0.000     0.000      107        0        0        0        0       11        0    23.121       91     10.3    2.388   -9.900     0.31    0.000    0.000       30        8     2060  Maize_Irrigated_Cahul_10May_Optimal_85_MOHC.PRM
  Tot(81)       10        5     2061     55.3    697.3   1644.0   611.00    461.8     54.7      0.6      0.4      0.0    128.2       58    468.2    469.7      100     0.000     0.000     0.000     0.000      107        0        0        0        6        7        0    24.153       95     27.5    6.634   -9.900     1.11    0.000    0.000       30        8     2061  Maize_Irrigated_Cahul_10May_Optimal_85_MOHC.PRM
  Tot(82)       10        5     2062     74.4    732.5   1764.1   618.00    451.9     72.1      2.3      0.9      0.0    126.7       51    477.0    477.1      100     0.000     0.000     0.000     0.000      107        0        0        0        1        7        0    24.079       94     38.9    9.365   -9.900     1.55    0.000    0.000       30        8     2062  Maize_Irrigated_Cahul_10May_Optimal_85_MOHC.PRM
  Tot(83)       10        5     2063     51.8    663.4   1703.7   625.00    476.4     51.0      0.8      0.0      0.0    185.9       79    419.6    419.0      100     0.000     0.000     0.000     0.000      107        0        0        0        1        8        0    23.606       93     39.8    9.401   -9.900     1.55    0.000    0.000       30        8     2063  Maize_Irrigated_Cahul_10May_Optimal_85_MOHC.PRM
  Tot(84)       10        5     2064     51.5    743.8   1826.6   632.00    462.5     51.5      0.0      0.0      0.0    145.0       50    452.4    453.7      100     0.000     0.000     0.000     0.000      107        0        0        0        1        9        0    23.549       92     40.1    9.444   -9.900     1.58    0.000    0.000       30        8     2064  Maize_Irrigated_Cahul_10May_Optimal_85_MOHC.PRM
  Tot(85)       10        5     2065     41.8    644.1   1656.4   639.00    393.0     41.2      0.6      0.0      0.0    104.6       47    409.9    409.2      100     0.000     0.000     0.000     0.000      107        0        0        0        1        8        0    23.777       93     40.1    9.530   -9.900     1.85    0.000    0.000       30        8     2065  Maize_Irrigated_Cahul_10May_Optimal_85_MOHC.PRM
  Tot(86)       10        5     2066     22.0    744.6   1776.3   647.00    470.4     22.0      0.0      0.0      0.0    131.5       44    442.6    442.9      100     0.000     0.000     0.000     0.000      107        0        0        0        0       10        0    23.106       91     38.1    8.807   -9.900     1.53    0.000    0.000       30        8     2066  Maize_Irrigated_Cahul_10May_Optimal_85_MOHC.PRM
  Tot(87)       10        5     2067     81.0    760.4   1837.2   654.00    449.6     80.6      0.4      0.0      0.0    132.4       49    478.1    477.7      100     0.000     0.000     0.000     0.000      107        0        0        0        0        8        0    23.817       93     28.5    6.782   -9.900     1.11    0.000    0.000       30        8     2067  Maize_Irrigated_Cahul_10May_Optimal_85_MOHC.PRM
  Tot(88)       10        5     2068    145.3    663.8   1714.7   662.00    347.2    139.6      5.7      1.9      0.0    146.7       63    416.6    416.1      100     0.000     0.000     0.000     0.000      107        0        0        0        0        5        0    24.293       95     40.1    9.739   -9.900     1.73    0.000    0.000       30        8     2068  Maize_Irrigated_Cahul_10May_Optimal_85_MOHC.PRM
  Tot(89)       10        5     2069    138.1    660.8   1745.7   669.00    320.9    128.4      9.7      6.1      0.0    110.3       47    412.9    413.3      100     0.000     0.000     0.000     0.000      107        0        0        0        1        5        0    24.019       95     40.1    9.634   -9.900     1.84    0.000    0.000       30        8     2069  Maize_Irrigated_Cahul_10May_Optimal_85_MOHC.PRM
  Tot(90)       10        5     2070     83.9    750.1   1777.4   677.00    487.0     63.7     20.2     13.9      0.0    148.1       56    469.0    469.1      100     0.000     0.000     0.000     0.000      107        0        0        0        2        7        0    23.897       94     35.3    8.447   -9.900     1.37    0.000    0.000       30        8     2070  Maize_Irrigated_Cahul_10May_Optimal_85_MOHC.PRM
  Tot(91)       10        5     2071     20.8    795.4   1813.5   685.00    622.6     20.8      0.0      0.0      0.0    246.9       81    478.7    479.3      100     0.000     0.000     0.000     0.000      107        0        0        0        1       12        0    22.811       90     -9.9    0.000   -9.900     0.00    0.000    0.000       30        8     2071  Maize_Irrigated_Cahul_10May_Optimal_85_MOHC.PRM
  Tot(92)       10        5     2072     96.9    743.2   1803.8   693.00    471.5     94.0      2.9      6.5      0.0    150.1       62    479.1    476.1      100     0.000     0.000     0.000     0.000      107        0        0        0        1        6        0    24.169       95     36.9    8.921   -9.900     1.42    0.000    0.000       30        8     2072  Maize_Irrigated_Cahul_10May_Optimal_85_MOHC.PRM
  Tot(93)       10        5     2073     98.2    703.7   1719.2   701.00    362.6     95.8      2.4      0.0      0.0    110.0       43    429.3    431.7      100     0.000     0.000     0.000     0.000      107        0        0        0        1        6        0    23.847       94     36.3    8.650   -9.900     1.60    0.000    0.000       30        8     2073  Maize_Irrigated_Cahul_10May_Optimal_85_MOHC.PRM
  Tot(94)       10        5     2074     65.2    765.1   1776.4   709.00    497.2     63.8      1.4      4.4      0.0    156.5       59    480.2    481.9      100     0.000     0.000     0.000     0.000      107        0        0        0        1        9        0    23.547       93     18.3    4.310   -9.900     0.68    0.000    0.000       30        8     2074  Maize_Irrigated_Cahul_10May_Optimal_85_MOHC.PRM
  Tot(95)       10        5     2075     52.9    764.7   1845.9   717.00    488.3     48.4      4.5      8.5      0.0    175.4       55    436.1    435.1      100     0.000     0.000     0.000     0.000      107        0        0        0        0       11        0    22.789       90     22.9    5.221   -9.900     0.85    0.000    0.000       30        8     2075  Maize_Irrigated_Cahul_10May_Optimal_85_MOHC.PRM
  Tot(96)       10        5     2076     98.3    715.8   1712.3   725.00    447.3     90.9      7.4     21.9      0.0    132.7       59    464.2    463.6      100     0.000     0.000     0.000     0.000      107        0        0        0        6        6        0    23.966       95      9.6    2.300   -9.900     0.39    0.000    0.000       30        8     2076  Maize_Irrigated_Cahul_10May_Optimal_85_MOHC.PRM
  Tot(97)       10        5     2077     61.1    700.4   1744.3   733.00    388.5     57.6      3.5      0.0      0.0    115.0       43    413.8    414.4      100     0.000     0.000     0.000     0.000      107        0        0        0        1        9        0    23.082       92     36.0    8.317   -9.900     1.57    0.000    0.000       30        8     2077  Maize_Irrigated_Cahul_10May_Optimal_85_MOHC.PRM
  Tot(98)       10        5     2078    104.5    652.0   1753.0   742.00    327.6    103.7      0.8      0.0      0.0    107.1       47    400.3    399.3      100     0.000     0.000     0.000     0.000      107        0        0        0        3        6        0    23.764       94     40.1    9.526   -9.900     1.88    0.000    0.000       30        8     2078  Maize_Irrigated_Cahul_10May_Optimal_85_MOHC.PRM
  Tot(99)       10        5     2079     65.4    728.1   1809.8   750.00    473.3     60.9      4.5      0.0      0.0    155.6       64    458.7    458.9      100     0.000     0.000     0.000     0.000      107        0        0        0        2        8        0    23.609       94     11.2    2.639   -9.900     0.43    0.000    0.000       30        8     2079  Maize_Irrigated_Cahul_10May_Optimal_85_MOHC.PRM
 Tot(100)       10        5     2080    123.0    765.7   1872.2   758.00    427.0    119.8      3.2      5.0      0.0    155.6       57    466.2    466.3      100     0.000     0.000     0.000     0.000      107        0        0        0        0        8        0    23.489       93      3.4    0.806   -9.900     0.13    0.000    0.000       30        8     2080  Maize_Irrigated_Cahul_10May_Optimal_85_MOHC.PRM
 Tot(101)       10        5     2081     90.8    736.2   1909.2   767.00    490.6     85.6      5.2      0.0      0.0    242.2       81    420.6    422.1      100     0.000     0.000     0.000     0.000      107        0        0        0        0        9        0    23.080       92     40.1    9.251   -9.900     1.40    0.000    0.000       30        8     2081  Maize_Irrigated_Cahul_10May_Optimal_85_MOHC.PRM
 Tot(102)       10        5     2082     68.7    770.7   1911.7   775.00    467.6     56.3     12.4     24.2      0.0    117.6       42    462.9    462.5      100     0.000     0.000     0.000     0.000      107        0        0        0        0        9        0    23.025       92     33.7    7.759   -9.900     1.34    0.000    0.000       30        8     2082  Maize_Irrigated_Cahul_10May_Optimal_85_MOHC.PRM
 Tot(103)       10        5     2083    105.7    785.2   1825.0   784.00    495.5     95.0     10.7     13.2      0.0    162.4       63    493.3    491.8      100     0.000     0.000     0.000     0.000      107        0        0        0        1        7        0    23.659       95     18.4    4.365   -9.900     0.67    0.000    0.000       30        8     2083  Maize_Irrigated_Cahul_10May_Optimal_85_MOHC.PRM
 Tot(104)       10        5     2084    323.1    594.1   1632.2   792.00    339.3    204.2    118.9    137.4      0.0     82.2       53    403.4    403.6      100     0.000     0.000     0.000     0.000      107        0        0        0        8        4        0    23.969       96     40.1    9.609   -9.900     1.98    0.000    0.000       30        8     2084  Maize_Irrigated_Cahul_10May_Optimal_85_MOHC.PRM
 Tot(105)       10        5     2085    105.1    770.4   1921.8   801.00    457.1    103.6      1.5      3.2      0.0    165.7       61    465.7    464.6      100     0.000     0.000     0.000     0.000      107        0        0        0        0        8        0    23.359       94     23.9    5.572   -9.900     0.88    0.000    0.000       30        8     2085  Maize_Irrigated_Cahul_10May_Optimal_85_MOHC.PRM
 Tot(106)       10        5     2086     45.5    735.4   1862.3   810.00    415.8     45.5      0.0      0.0      0.0    120.1       41    417.3    417.8      100     0.000     0.000     0.000     0.000      107        0        0        0        1        8        0    23.065       93      1.8    0.426   -9.900     0.08    0.000    0.000       30        8     2086  Maize_Irrigated_Cahul_10May_Optimal_85_MOHC.PRM
 Tot(107)       10        5     2087     35.9    846.5   1930.2   818.00    632.9     35.9      0.0      0.0      0.0    291.7       79    455.4    456.0      100     0.000     0.000     0.000     0.000      107        0        0        0        0       12        0    22.007       89      4.5    0.995   -9.900     0.13    0.000    0.000       30        8     2087  Maize_Irrigated_Cahul_10May_Optimal_85_MOHC.PRM
 Tot(108)       10        5     2088     36.8    856.1   1916.4   827.00    646.5     34.0      2.8      0.0      0.0    294.8       82    469.9    471.1      100     0.000     0.000     0.000     0.000      107        0        0        0        0       13        0    21.820       88      3.6    0.777   -9.900     0.10    0.000    0.000       30        8     2088  Maize_Irrigated_Cahul_10May_Optimal_85_MOHC.PRM
 Tot(109)       10        5     2089     31.2    831.7   1927.6   836.00    602.6     31.2      0.0      0.0      0.0    247.3       74    467.2    466.5      100     0.000     0.000     0.000     0.000      107        0        0        0        1       12        0    22.025       89     -9.9    0.000   -9.900     0.00    0.000    0.000       30        8     2089  Maize_Irrigated_Cahul_10May_Optimal_85_MOHC.PRM
 Tot(110)       10        5     2090     94.4    710.7   1796.3   845.00    413.3     90.6      3.8      6.3      0.0    126.9       60    454.7    455.2      100     0.000     0.000     0.000     0.000      107        0        0        0        2        6        0    23.610       96     26.0    6.127   -9.900     1.05    0.000    0.000       30        8     2090  Maize_Irrigated_Cahul_10May_Optimal_85_MOHC.PRM
 Tot(111)       10        5     2091     49.4    841.8   1922.8   854.00    523.6     48.8      0.6      0.0      0.0    141.8       49    507.9    506.5      100     0.000     0.000     0.000     0.000      107        0        0        0        0        9        0    22.830       93      3.7    0.851   -9.900     0.13    0.000    0.000       30        8     2091  Maize_Irrigated_Cahul_10May_Optimal_85_MOHC.PRM
 Tot(112)       10        5     2092     52.1    821.8   1874.7   863.00    509.9     47.8      4.3     17.8      0.0    145.1       47    473.5    473.8      100     0.000     0.000     0.000     0.000      107        0        0        0        1       10        0    22.546       92      8.9    2.011   -9.900     0.33    0.000    0.000       30        8     2092  Maize_Irrigated_Cahul_10May_Optimal_85_MOHC.PRM
 Tot(113)       10        5     2093     72.8    836.3   1925.8   872.00    511.1     71.9      0.9      0.0      0.0    168.0       56    490.8    490.2      100     0.000     0.000     0.000     0.000      107        0        0        0        0        9        0    22.768       93      0.1    0.013   -9.900     0.00    0.000    0.000       30        8     2093  Maize_Irrigated_Cahul_10May_Optimal_85_MOHC.PRM
 Tot(114)       10        5     2094     12.2    837.2   1955.0   881.00    647.0     12.2      0.0      0.0      0.0    274.6       81    460.4    460.5      100     0.000     0.000     0.000     0.000      107        0        0        0        0       13        0    21.707       89     14.4    3.134   -9.900     0.43    0.000    0.000       30        8     2094  Maize_Irrigated_Cahul_10May_Optimal_85_MOHC.PRM
 Tot(115)       10        5     2095     21.1    833.5   1931.8   890.00    641.9     21.1      0.0      0.0      0.0    275.2       85    467.6    468.4      100     0.000     0.000     0.000     0.000      107        0        0        0        0       12        0    21.777       89     -9.9    0.000   -9.900     0.00    0.000    0.000       30        8     2095  Maize_Irrigated_Cahul_10May_Optimal_85_MOHC.PRM
 Tot(116)       10        5     2096     97.8    785.9   1910.4   899.00    471.3     92.1      5.7     10.1      0.0    176.2       63    456.5    456.4      100     0.000     0.000     0.000     0.000      107        0        0        0        1        8        0    22.783       94     35.5    8.084   -9.900     1.28    0.000    0.000       30        8     2096  Maize_Irrigated_Cahul_10May_Optimal_85_MOHC.PRM
 Tot(117)       10        5     2097    141.3    744.3   1859.3   908.00    454.8    104.1     37.2     35.8      0.0    165.5       64    439.0    439.4      100     0.000     0.000     0.000     0.000      107        0        0        0        1        8        0    22.734       94      8.1    1.843   -9.900     0.30    0.000    0.000       30        8     2097  Maize_Irrigated_Cahul_10May_Optimal_85_MOHC.PRM
 Tot(118)       10        5     2098     45.2    776.4   1897.8   917.00    555.7     43.8      1.4      0.0      0.0    214.7       81    457.2    455.7      100     0.000     0.000     0.000     0.000      107        0        0        0        1        9        0    22.343       92      7.4    1.654   -9.900     0.25    0.000    0.000       30        8     2098  Maize_Irrigated_Cahul_10May_Optimal_85_MOHC.PRM
 Tot(119)       10        5     2099    114.9    678.5   1825.4   927.00    377.4    102.0     12.9      0.0      0.0    173.2       70    384.6    385.5      100     0.000     0.000     0.000     0.000      107        0        0        0        1        7        0    22.510       93     40.1    9.027   -9.900     1.62    0.000    0.000       30        8     2099  Maize_Irrigated_Cahul_10May_Optimal_85_MOHC.PRM
