AquaCrop 7.0 (August 2022) - Output created on (date) : 26-06-2023   at (time) : 11:06:48

    RunNr     Day1   Month1    Year1     Rain      ETo       GD     CO2      Irri   Infilt   Runoff    Drain   Upflow        E     E/Ex       Tr      TrW   Tr/Trx    SaltIn   SaltOut    SaltUp  SaltProf     Cycle   SaltStr  FertStr  WeedStr  TempStr   ExpStr   StoStr  BioMass  Brelative   HI    Y(dry)  Y(fresh)    WPet      Bin     Bout     DayN   MonthN    YearN
                                           mm       mm  degC.day    ppm        mm       mm       mm       mm       mm       mm        %       mm       mm        %    ton/ha    ton/ha    ton/ha    ton/ha      days       %        %        %        %        %        %    ton/ha        %       %    ton/ha   ton/ha    kg/m3   ton/ha   ton/ha
   Tot(1)       10        5     1981    146.8    507.3   1246.2   340.11      0.0    146.0      0.8      0.6      0.0     81.9       39    297.8    296.3       98     0.000     0.000     0.000     0.000      107        0        0        0       10        3        2    20.395       94     40.0    8.161   -9.900     2.15    0.000    0.000       30        8     1981  Maize_Improved_Cahul_10May_Optimal_26_MOHC.PRM
   Tot(2)       10        5     1982    232.4    490.7   1271.5   341.22      0.0    231.7      0.7      0.0      0.0    105.7       49    286.3    285.7      100     0.000     0.000     0.000     0.000      107        0        0        0        6        2        0    21.546       96     40.0    8.620   -9.900     2.20    0.000    0.000       30        8     1982  Maize_Improved_Cahul_10May_Optimal_26_MOHC.PRM
   Tot(3)       10        5     1983    291.5    495.5   1304.3   342.84      0.0    264.9     26.6     27.8      0.0    104.9       49    291.6    291.7      100     0.000     0.000     0.000     0.000      107        0        0        0        6        1        0    21.606       97     40.0    8.652   -9.900     2.18    0.000    0.000       30        8     1983  Maize_Improved_Cahul_10May_Optimal_26_MOHC.PRM
   Tot(4)       10        5     1984    204.1    468.4   1129.3   344.40      0.0    199.7      4.4     10.1      0.0    128.4       68    271.8    271.2      100     0.000     0.000     0.000     0.000      107        0        0        0       12        1        0    20.545       97     40.1    8.230   -9.900     2.06    0.000    0.000       30        8     1984  Maize_Improved_Cahul_10May_Optimal_26_MOHC.PRM
   Tot(5)       10        5     1985    291.0    486.1   1240.6   345.87      0.0    263.9     27.1     43.6      0.0    119.4       59    287.3    287.4      100     0.000     0.000     0.000     0.000      107        0        0        0        9        1        0    21.016       97     40.0    8.406   -9.900     2.07    0.000    0.000       30        8     1985  Maize_Improved_Cahul_10May_Optimal_26_MOHC.PRM
   Tot(6)       10        5     1986    174.4    542.4   1329.9   347.19      0.0    173.4      1.0      0.0      0.0    106.9       48    303.8    303.3       93     0.000     0.000     0.000     0.000      107        0        0        0        5        4        5    20.093       89     40.0    8.038   -9.900     1.96    0.000    0.000       30        8     1986  Maize_Improved_Cahul_10May_Optimal_26_MOHC.PRM
   Tot(7)       10        5     1987    239.8    498.8   1219.8   348.98      0.0    231.8      8.0      0.0      0.0     98.0       51    311.6    312.5      100     0.000     0.000     0.000     0.000      107        0        0        0       12        2        0    21.334       97     40.0    8.543   -9.900     2.09    0.000    0.000       30        8     1987  Maize_Improved_Cahul_10May_Optimal_26_MOHC.PRM
   Tot(8)       10        5     1988    149.3    506.3   1314.4   351.45      0.0    147.7      1.6      4.3      0.0    126.5       69    288.0    289.1       87     0.000     0.000     0.000     0.000      107        0        0        0        6        5       11    18.651       81     39.8    7.423   -9.900     1.79    0.000    0.000       30        8     1988  Maize_Improved_Cahul_10May_Optimal_26_MOHC.PRM
   Tot(9)       10        5     1989    210.2    497.8   1242.2   352.89      0.0    209.8      0.4      0.0      0.0    102.8       52    309.7    309.8      100     0.000     0.000     0.000     0.000      107        0        0        0       13        3        0    21.780       97     40.1    8.736   -9.900     2.12    0.000    0.000       30        8     1989  Maize_Improved_Cahul_10May_Optimal_26_MOHC.PRM
  Tot(10)       10        5     1990    134.5    533.2   1221.9   354.16      0.0    134.2      0.3      0.0      0.0    116.5       55    289.2    289.1       88     0.000     0.000     0.000     0.000      107        0        0        0       13        7       10    18.809       83     40.1    7.535   -9.900     1.86    0.000    0.000       30        8     1990  Maize_Improved_Cahul_10May_Optimal_26_MOHC.PRM
  Tot(11)       10        5     1991    366.2    440.5   1237.7   355.48      0.0    323.8     42.4     60.6      0.0    117.5       74    294.8    293.7      100     0.000     0.000     0.000     0.000      107        0        0        0       14        0        0    22.536       98     40.0    9.017   -9.900     2.19    0.000    0.000       30        8     1991  Maize_Improved_Cahul_10May_Optimal_26_MOHC.PRM
  Tot(12)       10        5     1992    169.4    527.1   1280.4   356.27      0.0    168.9      0.5      0.0      0.0    126.8       67    309.1    309.8       89     0.000     0.000     0.000     0.000      107        0        0        0       13        3        8    19.817       86     39.9    7.914   -9.900     1.82    0.000    0.000       30        8     1992  Maize_Improved_Cahul_10May_Optimal_26_MOHC.PRM
  Tot(13)       10        5     1993    217.3    512.9   1209.9   356.95      0.0    204.6     12.7     26.5      0.0    123.0       62    298.8    299.9       96     0.000     0.000     0.000     0.000      107        0        0        0       10        3        3    19.948       93     40.0    7.980   -9.900     1.89    0.000    0.000       30        8     1993  Maize_Improved_Cahul_10May_Optimal_26_MOHC.PRM
  Tot(14)       10        5     1994    230.6    531.5   1344.3   358.63      0.0    214.7     15.9     36.0      0.0     96.0       43    312.1    310.0       96     0.000     0.000     0.000     0.000      107        0        0        0        8        7        3    20.748       90     40.0    8.300   -9.900     2.03    0.000    0.000       30        8     1994  Maize_Improved_Cahul_10May_Optimal_26_MOHC.PRM
  Tot(15)       10        5     1995    166.2    526.5   1355.9   360.62      0.0    161.7      4.5      6.3      0.0     97.6       46    312.7    314.0       93     0.000     0.000     0.000     0.000      107        0        0        0        6        6        5    20.896       89     40.1    8.371   -9.900     2.04    0.000    0.000       30        8     1995  Maize_Improved_Cahul_10May_Optimal_26_MOHC.PRM
  Tot(16)       10        5     1996    151.7    560.7   1318.1   362.37      0.0    141.8      9.9      0.0      0.0    102.0       39    261.5    260.9       87     0.000     0.000     0.000     0.000      107        0        0        0        7       16        9    16.783       74     40.3    6.767   -9.900     1.86    0.000    0.000       30        8     1996  Maize_Improved_Cahul_10May_Optimal_26_MOHC.PRM
  Tot(17)       10        5     1997    425.5    464.4   1256.1   363.47      0.0    381.1     44.4      1.2      0.0    126.4       65    283.3    283.3      100     0.000     0.000     0.000     0.000      107        0        0        0       10        1        0    22.463       97     40.0    8.986   -9.900     2.19    0.000    0.000       30        8     1997  Maize_Improved_Cahul_10May_Optimal_26_MOHC.PRM
  Tot(18)       10        5     1998    211.3    512.8   1294.4   366.50      0.0    207.5      3.8      4.1      0.0    123.2       66    307.8    308.4       92     0.000     0.000     0.000     0.000      107        0        0        0       11        2        6    20.138       89     39.9    8.039   -9.900     1.87    0.000    0.000       30        8     1998  Maize_Improved_Cahul_10May_Optimal_26_MOHC.PRM
  Tot(19)       10        5     1999    300.7    547.1   1408.0   368.14      0.0    285.1     15.6      0.0      0.0    114.9       52    345.3    344.0      100     0.000     0.000     0.000     0.000      107        0        0        0        6        2        0    22.804       96     40.1    9.136   -9.900     1.99    0.000    0.000       30        8     1999  Maize_Improved_Cahul_10May_Optimal_26_MOHC.PRM
  Tot(20)       10        5     2000     73.7    615.7   1340.3   369.41      0.0     73.7      0.0      0.0      0.0     75.3       25    268.2    270.2       84     0.000     0.000     0.000     0.000      107        0        0        0        6       14       14    16.070       70     39.8    6.396   -9.900     1.86    0.000    0.000       30        8     2000  Maize_Improved_Cahul_10May_Optimal_26_MOHC.PRM
  Tot(21)       10        5     2001    197.2    553.7   1323.0   371.07      0.0    168.5     28.7     19.5      0.0    113.2       53    307.6    307.5       87     0.000     0.000     0.000     0.000      107        0        0        0        8        2       11    19.368       82     39.8    7.700   -9.900     1.83    0.000    0.000       30        8     2001  Maize_Improved_Cahul_10May_Optimal_26_MOHC.PRM
  Tot(22)       10        5     2002    295.7    563.3   1406.9   373.16      0.0    258.3     37.4      0.0      0.0    104.6       42    331.0    328.5       98     0.000     0.000     0.000     0.000      107        0        0        0        5       18        1    21.546       90     40.7    8.772   -9.900     2.01    0.000    0.000       30        8     2002  Maize_Improved_Cahul_10May_Optimal_26_MOHC.PRM
  Tot(23)       10        5     2003    102.9    601.8   1428.1   375.80      0.0    102.9      0.0      0.0      0.0     89.3       30    285.7    287.4       87     0.000     0.000     0.000     0.000      107        0        0        0        3       14       10    18.446       78     40.0    7.378   -9.900     1.97    0.000    0.000       30        8     2003  Maize_Improved_Cahul_10May_Optimal_26_MOHC.PRM
  Tot(24)       10        5     2004    274.3    515.6   1240.7   377.49      0.0    268.8      5.5      2.4      0.0    129.5       63    324.4    322.6      100     0.000     0.000     0.000     0.000      107        0        0        0       11        7        0    22.262       95     40.1    8.921   -9.900     1.97    0.000    0.000       30        8     2004  Maize_Improved_Cahul_10May_Optimal_26_MOHC.PRM
  Tot(25)       10        5     2005    357.3    523.6   1316.6   379.80      0.0    344.1     13.2      4.4      0.0    139.8       67    329.1    328.9      100     0.000     0.000     0.000     0.000      107        0        0        0        7        2        0    22.959       97     40.0    9.187   -9.900     1.96    0.000    0.000       30        8     2005  Maize_Improved_Cahul_10May_Optimal_26_MOHC.PRM
  Tot(26)       10        5     2006    170.7    575.9   1338.1   381.90      0.0    162.8      7.9     12.6      0.0    104.5       43    294.1    296.6       86     0.000     0.000     0.000     0.000      107        0        0        0        7       11       10    18.177       77     40.1    7.292   -9.900     1.83    0.000    0.000       30        8     2006  Maize_Improved_Cahul_10May_Optimal_26_MOHC.PRM
  Tot(27)       10        5     2007    117.6    680.9   1520.4   383.77      0.0    116.3      1.3      0.0      0.0     96.8       29    285.5    285.5       80     0.000     0.000     0.000     0.000      107        0        0        0        1       19       16    15.256       63     40.1    6.116   -9.900     1.60    0.000    0.000       30        8     2007  Maize_Improved_Cahul_10May_Optimal_26_MOHC.PRM
  Tot(28)       10        5     2008    142.7    609.1   1384.2   385.59      0.0    142.7      0.0      0.0      0.0     98.7       38    308.0    307.9       85     0.000     0.000     0.000     0.000      107        0        0        0        4       12       12    18.243       76     39.8    7.266   -9.900     1.79    0.000    0.000       30        8     2008  Maize_Improved_Cahul_10May_Optimal_26_MOHC.PRM
  Tot(29)       10        5     2009    135.2    618.6   1416.0   387.37      0.0    134.6      0.6      0.0      0.0     85.7       32    323.2    323.3       88     0.000     0.000     0.000     0.000      107        0        0        0        3        7       10    19.121       79     39.8    7.608   -9.900     1.86    0.000    0.000       30        8     2009  Maize_Improved_Cahul_10May_Optimal_26_MOHC.PRM
  Tot(30)       10        5     2010    257.4    553.9   1446.3   389.85      0.0    239.4     18.0      2.3      0.0    126.6       57    342.4    341.7       99     0.000     0.000     0.000     0.000      107        0        0        0        7        1        1    22.564       96     40.0    9.025   -9.900     1.92    0.000    0.000       30        8     2010  Maize_Improved_Cahul_10May_Optimal_26_MOHC.PRM
  Tot(31)       10        5     2011    170.0    575.1   1394.0   391.63      0.0    165.7      4.3      2.2      0.0    115.2       49    317.4    317.6       90     0.000     0.000     0.000     0.000      107        0        0        0        4        4        7    20.337       86     40.0    8.128   -9.900     1.88    0.000    0.000       30        8     2011  Maize_Improved_Cahul_10May_Optimal_26_MOHC.PRM
  Tot(32)       10        5     2012    235.5    644.6   1476.6   393.82      0.0    228.5      7.0      8.0      0.0    149.1       58    329.1    328.2       83     0.000     0.000     0.000     0.000      107        0        0        0        5       10       12    18.023       75     39.8    7.165   -9.900     1.50    0.000    0.000       30        8     2012  Maize_Improved_Cahul_10May_Optimal_26_MOHC.PRM
  Tot(33)       10        5     2013    245.8    572.9   1442.3   396.48      0.0    233.1     12.7      0.0      0.0    124.3       54    341.0    341.0       94     0.000     0.000     0.000     0.000      107        0        0        0        3        3        4    21.943       91     39.9    8.762   -9.900     1.88    0.000    0.000       30        8     2013  Maize_Improved_Cahul_10May_Optimal_26_MOHC.PRM
  Tot(34)       10        5     2014    231.2    553.0   1388.0   398.55      0.0    226.5      4.7      7.4      0.0    138.1       67    337.2    337.9       94     0.000     0.000     0.000     0.000      107        0        0        0        4        4        5    21.674       90     40.1    8.684   -9.900     1.83    0.000    0.000       30        8     2014  Maize_Improved_Cahul_10May_Optimal_26_MOHC.PRM
  Tot(35)       10        5     2015    138.4    632.1   1420.5   401.00      0.0    136.8      1.6      0.0      0.0     89.7       32    311.5    311.9       85     0.000     0.000     0.000     0.000      107        0        0        0        4        8       10    18.438       77     39.8    7.344   -9.900     1.83    0.000    0.000       30        8     2015  Maize_Improved_Cahul_10May_Optimal_26_MOHC.PRM
  Tot(36)       10        5     2016    181.4    575.2   1403.1   403.00      0.0    180.6      0.8      0.8      0.0    142.2       67    308.5    308.7       84     0.000     0.000     0.000     0.000      107        0        0        0        8        7       13    18.458       77     39.8    7.354   -9.900     1.63    0.000    0.000       30        8     2016  Maize_Improved_Cahul_10May_Optimal_26_MOHC.PRM
  Tot(37)       10        5     2017    261.1    575.3   1379.0   405.00      0.0    232.5     28.6      1.2      0.0    100.6       45    364.4    363.6       99     0.000     0.000     0.000     0.000      107        0        0        0        6        3        1    22.907       95     40.1    9.182   -9.900     1.97    0.000    0.000       30        8     2017  Maize_Improved_Cahul_10May_Optimal_26_MOHC.PRM
  Tot(38)       10        5     2018    166.6    568.1   1494.6   408.00      0.0    161.1      5.5      0.0      0.0     86.1       34    320.8    320.1       97     0.000     0.000     0.000     0.000      107        0        0        0        2        6        2    22.236       92     40.1    8.916   -9.900     2.19    0.000    0.000       30        8     2018  Maize_Improved_Cahul_10May_Optimal_26_MOHC.PRM
  Tot(39)       10        5     2019    183.6    599.5   1473.9   410.00      0.0    182.0      1.6      1.9      0.0    151.2       63    306.1    307.9       84     0.000     0.000     0.000     0.000      107        0        0        0        2        8       13    18.887       78     39.7    7.503   -9.900     1.64    0.000    0.000       30        8     2019  Maize_Improved_Cahul_10May_Optimal_26_MOHC.PRM
  Tot(40)       10        5     2020     70.1    650.4   1446.8   412.00      0.0     67.9      2.2      2.4      0.0     91.9       30    242.2    242.8       76     0.000     0.000     0.000     0.000       98        0        0        0       11       16       20    13.053       54     34.6    4.519   -9.900     1.37    0.000    0.000       30        8     2020  Maize_Improved_Cahul_10May_Optimal_26_MOHC.PRM
  Tot(41)       10        5     2021     51.0    633.8   1451.5   414.00      0.0     51.0      0.0      0.0      0.0     81.0       27    234.7    234.7       77     0.000     0.000     0.000     0.000       98        0        0        0        8       18       19    12.965       53     34.8    4.513   -9.900     1.44    0.000    0.000       30        8     2021  Maize_Improved_Cahul_10May_Optimal_26_MOHC.PRM
  Tot(42)       10        5     2022     94.8    650.9   1550.1   417.00      0.0     91.8      3.0      4.6      0.0     99.5       34    263.2    263.2       77     0.000     0.000     0.000     0.000      103        0        0        0        3       13       19    14.929       61     39.4    5.882   -9.900     1.63    0.000    0.000       30        8     2022  Maize_Improved_Cahul_10May_Optimal_26_MOHC.PRM
  Tot(43)       10        5     2023     76.3    702.0   1612.9   419.00      0.0     76.3      0.0      0.0      0.0     95.3       25    231.0    231.0       76     0.000     0.000     0.000     0.000       95        0        0        0        2       24       19    11.938       49     31.9    3.814   -9.900     1.19    0.000    0.000       30        8     2023  Maize_Improved_Cahul_10May_Optimal_26_MOHC.PRM
  Tot(44)       10        5     2024    175.0    618.9   1509.1   421.00      0.0    159.7     15.3     14.1      0.0    100.8       43    323.4    322.7       83     0.000     0.000     0.000     0.000      107        0        0        0        3        4       13    19.171       78     39.4    7.556   -9.900     1.78    0.000    0.000       30        8     2024  Maize_Improved_Cahul_10May_Optimal_26_MOHC.PRM
  Tot(45)       10        5     2025    102.6    639.8   1419.1   423.00      0.0     95.9      6.7      7.3      0.0     81.9       24    220.1    220.8       76     0.000     0.000     0.000     0.000       94        0        0        0        8       26       19    11.134       47     30.9    3.437   -9.900     1.22    0.000    0.000       30        8     2025  Maize_Improved_Cahul_10May_Optimal_26_MOHC.PRM
  Tot(46)       10        5     2026     86.3    705.6   1562.4   424.00      0.0     86.1      0.2      0.0      0.0    109.5       31    247.9    247.9       75     0.000     0.000     0.000     0.000       98        0        0        0        5       18       20    13.121       53     34.5    4.529   -9.900     1.27    0.000    0.000       30        8     2026  Maize_Improved_Cahul_10May_Optimal_26_MOHC.PRM
  Tot(47)       10        5     2027     99.2    665.2   1511.3   426.00      0.0     94.4      4.8     10.6      0.0     96.4       32    257.6    257.6       75     0.000     0.000     0.000     0.000       97        0        0        0        7       14       20    13.224       54     33.7    4.455   -9.900     1.26    0.000    0.000       30        8     2027  Maize_Improved_Cahul_10May_Optimal_26_MOHC.PRM
  Tot(48)       10        5     2028    115.7    680.1   1520.2   428.00      0.0    113.7      2.0      5.3      0.0    116.0       34    231.8    231.8       75     0.000     0.000     0.000     0.000       91        0        0        0        6       24       20    10.956       44     28.1    3.074   -9.900     0.92    0.000    0.000       30        8     2028  Maize_Improved_Cahul_10May_Optimal_26_MOHC.PRM
  Tot(49)       10        5     2029    169.8    616.7   1499.4   429.00      0.0    154.6     15.2     30.0      0.0    125.3       53    278.0    278.0       78     0.000     0.000     0.000     0.000      106        0        0        0        6        6       19    16.239       66     39.1    6.343   -9.900     1.57    0.000    0.000       30        8     2029  Maize_Improved_Cahul_10May_Optimal_26_MOHC.PRM
  Tot(50)       10        5     2030    139.7    731.2   1649.1   431.00      0.0    124.9     14.8      0.0      0.0     95.8       31    304.3    304.3       77     0.000     0.000     0.000     0.000      103        0        0        0        4        7       20    14.973       60     21.5    3.212   -9.900     0.81    0.000    0.000       30        8     2030  Maize_Improved_Cahul_10May_Optimal_26_MOHC.PRM
  Tot(51)       10        5     2031     95.7    626.0   1489.4   432.00      0.0     94.9      0.8      0.0      0.0    105.0       38    264.3    264.3       79     0.000     0.000     0.000     0.000      104        0        0        0        5       11       19    15.373       62     39.2    6.033   -9.900     1.65    0.000    0.000       30        8     2031  Maize_Improved_Cahul_10May_Optimal_26_MOHC.PRM
  Tot(52)       10        5     2032     27.9    757.1   1690.4   433.00      0.0     27.4      0.5      0.8      0.0     64.9       15    215.4    215.4       75     0.000     0.000     0.000     0.000       92        0        0        0        0       28       19    10.150       41     26.8    2.724   -9.900     0.98    0.000    0.000       30        8     2032  Maize_Improved_Cahul_10May_Optimal_26_MOHC.PRM
  Tot(53)       10        5     2033    103.9    699.2   1621.5   435.00      0.0    103.8      0.1      0.0      0.0    112.7       34    261.9    261.9       76     0.000     0.000     0.000     0.000       98        0        0        0        2       13       20    13.493       55     34.6    4.665   -9.900     1.27    0.000    0.000       30        8     2033  Maize_Improved_Cahul_10May_Optimal_26_MOHC.PRM
  Tot(54)       10        5     2034     88.9    620.2   1463.0   436.00      0.0     88.6      0.3      1.3      0.0     95.0       36    267.6    267.6       80     0.000     0.000     0.000     0.000      106        0        0        0        7       13       18    15.746       64     39.4    6.199   -9.900     1.71    0.000    0.000       30        8     2034  Maize_Improved_Cahul_10May_Optimal_26_MOHC.PRM
  Tot(55)       10        5     2035     94.7    641.3   1551.6   437.00      0.0     93.6      1.1      1.4      0.0     99.6       36    266.7    266.7       78     0.000     0.000     0.000     0.000      102        0        0        0        2       12       19    14.828       60     38.4    5.693   -9.900     1.57    0.000    0.000       30        8     2035  Maize_Improved_Cahul_10May_Optimal_26_MOHC.PRM
  Tot(56)       10        5     2036     94.4    662.6   1524.9   438.00      0.0     94.4      0.0      0.0      0.0    103.6       35    261.7    261.5       73     0.000     0.000     0.000     0.000      107        0        0        0        4       13       22    14.337       58     39.2    5.625   -9.900     1.54    0.000    0.000       30        8     2036  Maize_Improved_Cahul_10May_Optimal_26_MOHC.PRM
  Tot(57)       10        5     2037     62.6    652.1   1544.9   438.00      0.0     62.6      0.0      0.0      0.0     88.9       30    238.7    238.9       75     0.000     0.000     0.000     0.000       95        0        0        0        5       19       20    12.464       50     31.7    3.948   -9.900     1.21    0.000    0.000       30        8     2037  Maize_Improved_Cahul_10May_Optimal_26_MOHC.PRM
  Tot(58)       10        5     2038    111.5    571.5   1392.8   439.00      0.0    110.0      1.5      0.0      0.0    112.5       55    276.2    276.1       79     0.000     0.000     0.000     0.000      107        0        0        0        7        4       18    17.228       70     39.2    6.760   -9.900     1.74    0.000    0.000       30        8     2038  Maize_Improved_Cahul_10May_Optimal_26_MOHC.PRM
  Tot(59)       10        5     2039     68.5    691.2   1569.8   440.00      0.0     67.1      1.4      1.9      0.0     95.6       27    228.1    228.2       75     0.000     0.000     0.000     0.000       93        0        0        0        3       23       20    11.642       47     29.7    3.463   -9.900     1.08    0.000    0.000       30        8     2039  Maize_Improved_Cahul_10May_Optimal_26_MOHC.PRM
  Tot(60)       10        5     2040     55.6    675.1   1487.2   440.00      0.0     55.3      0.3      0.0      0.0     64.3       19    252.1    251.7       75     0.000     0.000     0.000     0.000      107        0        0        0        4       24       21    13.558       55     39.6    5.374   -9.900     1.70    0.000    0.000       30        8     2040  Maize_Improved_Cahul_10May_Optimal_26_MOHC.PRM
  Tot(61)       10        5     2041    102.2    670.5   1490.5   441.00      0.0    101.5      0.7      1.7      0.0    113.3       38    258.9    259.2       76     0.000     0.000     0.000     0.000       98        0        0        0        9       15       20    13.515       55     34.4    4.655   -9.900     1.26    0.000    0.000       30        8     2041  Maize_Improved_Cahul_10May_Optimal_26_MOHC.PRM
  Tot(62)       10        5     2042     73.1    584.6   1413.0   441.00      0.0     72.8      0.3      1.8      0.0     86.2       35    259.4    259.4       81     0.000     0.000     0.000     0.000      106        0        0        0        8       16       18    15.642       64     39.7    6.214   -9.900     1.80    0.000    0.000       30        8     2042  Maize_Improved_Cahul_10May_Optimal_26_MOHC.PRM
  Tot(63)       10        5     2043     51.6    701.2   1613.1   441.00      0.0     51.6      0.0      0.0      0.0     81.1       23    237.5    237.5       75     0.000     0.000     0.000     0.000       96        0        0        0        3       19       20    12.573       51     32.6    4.098   -9.900     1.30    0.000    0.000       30        8     2043  Maize_Improved_Cahul_10May_Optimal_26_MOHC.PRM
  Tot(64)       10        5     2044    167.1    578.2   1429.2   442.00      0.0    165.5      1.6      8.9      0.0    122.7       63    312.8    312.3       83     0.000     0.000     0.000     0.000      107        0        0        0        7        4       14    19.071       77     39.5    7.533   -9.900     1.73    0.000    0.000       30        8     2044  Maize_Improved_Cahul_10May_Optimal_26_MOHC.PRM
  Tot(65)       10        5     2045    178.3    664.3   1532.7   442.00      0.0    154.0     24.3     31.4      0.0    137.4       46    255.5    256.0       75     0.000     0.000     0.000     0.000       99        0        0        0        2       14       20    14.010       56     35.6    4.982   -9.900     1.28    0.000    0.000       30        8     2045  Maize_Improved_Cahul_10May_Optimal_26_MOHC.PRM
  Tot(66)       10        5     2046     70.2    756.8   1722.0   442.00      0.0     69.7      0.5      1.6      0.0     97.9       23    220.9    220.9       75     0.000     0.000     0.000     0.000       90        0        0        0        1       28       20    10.185       41     11.1    1.129   -9.900     0.36    0.000    0.000       30        8     2046  Maize_Improved_Cahul_10May_Optimal_26_MOHC.PRM
  Tot(67)       10        5     2047     84.8    637.7   1578.0   442.00      0.0     82.9      1.9      5.1      0.0    105.2       36    240.6    240.6       76     0.000     0.000     0.000     0.000       98        0        0        0        6       16       19    13.615       55     34.7    4.730   -9.900     1.37    0.000    0.000       30        8     2047  Maize_Improved_Cahul_10May_Optimal_26_MOHC.PRM
  Tot(68)       10        5     2048    260.7    606.8   1474.1   442.00      0.0    172.5     88.2     18.0      0.0     88.0       39    340.4    339.3       87     0.000     0.000     0.000     0.000      107        0        0        0        6        3       10    20.324       83     39.8    8.081   -9.900     1.89    0.000    0.000       30        8     2048  Maize_Improved_Cahul_10May_Optimal_26_MOHC.PRM
  Tot(69)       10        5     2049     69.3    630.3   1583.2   443.00      0.0     69.3      0.0      0.0      0.0     89.9       30    252.7    253.8       77     0.000     0.000     0.000     0.000      105        0        0        0        3       15       20    14.648       59     39.6    5.801   -9.900     1.70    0.000    0.000       30        8     2049  Maize_Improved_Cahul_10May_Optimal_26_MOHC.PRM
  Tot(70)       10        5     2050     79.9    648.8   1514.3   443.00      0.0     79.2      0.7      1.1      0.0     89.5       28    232.9    232.9       76     0.000     0.000     0.000     0.000       96        0        0        0        5       20       19    12.565       51     32.8    4.117   -9.900     1.34    0.000    0.000       30        8     2050  Maize_Improved_Cahul_10May_Optimal_26_MOHC.PRM
  Tot(71)       10        5     2051     84.4    655.0   1536.1   443.00      0.0     84.1      0.3      0.0      0.0     98.1       34    258.9    258.9       77     0.000     0.000     0.000     0.000      100        0        0        0        7       13       20    14.024       57     36.5    5.112   -9.900     1.45    0.000    0.000       30        8     2051  Maize_Improved_Cahul_10May_Optimal_26_MOHC.PRM
  Tot(72)       10        5     2052     93.6    640.3   1566.9   443.00      0.0     93.6      0.0      0.0      0.0     86.2       31    282.2    282.2       80     0.000     0.000     0.000     0.000      106        0        0        0        4       14       19    15.787       63     39.5    6.235   -9.900     1.69    0.000    0.000       30        8     2052  Maize_Improved_Cahul_10May_Optimal_26_MOHC.PRM
  Tot(73)       10        5     2053     80.3    686.6   1614.9   443.00      0.0     80.3      0.0      0.0      0.0     94.4       28    257.2    257.2       77     0.000     0.000     0.000     0.000       99        0        0        0        2       16       19    13.627       55     35.6    4.856   -9.900     1.39    0.000    0.000       30        8     2053  Maize_Improved_Cahul_10May_Optimal_26_MOHC.PRM
  Tot(74)       10        5     2054    181.3    641.6   1557.6   443.00      0.0    174.0      7.3      3.8      0.0    129.9       52    318.5    318.3       82     0.000     0.000     0.000     0.000      107        0        0        0        2        6       16    17.894       72     39.4    7.044   -9.900     1.57    0.000    0.000       30        8     2054  Maize_Improved_Cahul_10May_Optimal_26_MOHC.PRM
  Tot(75)       10        5     2055    133.7    668.8   1561.4   443.00      0.0    122.0     11.7     34.4      0.0     97.1       28    233.4    233.6       77     0.000     0.000     0.000     0.000       94        0        0        0        7       24       19    11.714       47     31.0    3.628   -9.900     1.11    0.000    0.000       30        8     2055  Maize_Improved_Cahul_10May_Optimal_26_MOHC.PRM
  Tot(76)       10        5     2056    111.8    692.9   1586.2   442.00      0.0    111.5      0.3      0.0      0.0    110.9       36    275.9    275.9       76     0.000     0.000     0.000     0.000      102        0        0        0        3       12       20    14.739       59     38.1    5.621   -9.900     1.48    0.000    0.000       30        8     2056  Maize_Improved_Cahul_10May_Optimal_26_MOHC.PRM
  Tot(77)       10        5     2057    124.8    650.3   1555.4   442.00      0.0    123.8      1.0      0.0      0.0     99.0       39    304.4    304.3       80     0.000     0.000     0.000     0.000      107        0        0        0        6        4       17    17.439       70     39.1    6.824   -9.900     1.69    0.000    0.000       30        8     2057  Maize_Improved_Cahul_10May_Optimal_26_MOHC.PRM
  Tot(78)       10        5     2058     59.2    659.7   1568.8   442.00      0.0     58.6      0.6      0.0      0.0     77.4       24    251.3    251.5       79     0.000     0.000     0.000     0.000      100        0        0        0        6       21       18    13.727       55     36.9    5.062   -9.900     1.55    0.000    0.000       30        8     2058  Maize_Improved_Cahul_10May_Optimal_26_MOHC.PRM
  Tot(79)       10        5     2059     73.4    666.7   1539.4   442.00      0.0     73.3      0.1      0.0      0.0     87.2       28    259.4    259.4       77     0.000     0.000     0.000     0.000      105        0        0        0        6       23       20    14.164       57     39.5    5.589   -9.900     1.61    0.000    0.000       30        8     2059  Maize_Improved_Cahul_10May_Optimal_26_MOHC.PRM
  Tot(80)       10        5     2060     87.5    597.8   1437.7   442.00      0.0     83.9      3.6      8.0      0.0     92.9       38    257.3    257.3       78     0.000     0.000     0.000     0.000      103        0        0        0        8       10       19    15.247       62     39.3    5.987   -9.900     1.71    0.000    0.000       30        8     2060  Maize_Improved_Cahul_10May_Optimal_26_MOHC.PRM
  Tot(81)       10        5     2061     48.0    656.2   1563.5   441.00      0.0     48.0      0.0      0.0      0.0     78.9       24    232.8    232.8       76     0.000     0.000     0.000     0.000       96        0        0        0        4       19       19    12.688       51     26.5    3.363   -9.900     1.10    0.000    0.000       30        8     2061  Maize_Improved_Cahul_10May_Optimal_26_MOHC.PRM
  Tot(82)       10        5     2062     79.5    663.5   1541.1   441.00      0.0     79.5      0.0      0.0      0.0     91.9       29    256.6    256.2       75     0.000     0.000     0.000     0.000      107        0        0        0        4       23       20    14.121       57     39.9    5.640   -9.900     1.62    0.000    0.000       30        8     2062  Maize_Improved_Cahul_10May_Optimal_26_MOHC.PRM
  Tot(83)       10        5     2063    157.6    630.9   1531.7   441.00      0.0    148.1      9.5     16.1      0.0    129.2       47    249.2    249.7       76     0.000     0.000     0.000     0.000       98        0        0        0        6       15       20    13.637       55     34.5    4.705   -9.900     1.29    0.000    0.000       30        8     2063  Maize_Improved_Cahul_10May_Optimal_26_MOHC.PRM
  Tot(84)       10        5     2064    118.9    646.3   1573.4   440.00      0.0    112.9      6.0      9.7      0.0    118.8       41    250.2    250.2       76     0.000     0.000     0.000     0.000       98        0        0        0        4       15       20    13.795       55     34.6    4.779   -9.900     1.34    0.000    0.000       30        8     2064  Maize_Improved_Cahul_10May_Optimal_26_MOHC.PRM
  Tot(85)       10        5     2065     52.4    745.0   1625.6   440.00      0.0     52.4      0.0      0.0      0.0     86.6       20    212.8    212.8       74     0.000     0.000     0.000     0.000       89        0        0        0        1       29       20     9.550       38     25.9    2.469   -9.900     0.83    0.000    0.000       30        8     2065  Maize_Improved_Cahul_10May_Optimal_26_MOHC.PRM
  Tot(86)       10        5     2066    282.6    596.3   1463.5   440.00      0.0    200.6     82.0      5.9      0.0    132.0       52    262.7    262.0       79     0.000     0.000     0.000     0.000      107        0        0        0        7       19       15    14.729       60     40.0    5.893   -9.900     1.49    0.000    0.000       30        8     2066  Maize_Improved_Cahul_10May_Optimal_26_MOHC.PRM
  Tot(87)       10        5     2067     81.1    651.5   1510.9   439.00      0.0     80.3      0.8      0.0      0.0     64.9       22    279.4    279.0       78     0.000     0.000     0.000     0.000      107        0        0        0        3       25       16    15.323       62     40.3    6.168   -9.900     1.79    0.000    0.000       30        8     2067  Maize_Improved_Cahul_10May_Optimal_26_MOHC.PRM
  Tot(88)       10        5     2068    226.7    554.1   1381.5   439.00      0.0    208.3     18.4     23.7      0.0     96.1       47    334.8    333.9       93     0.000     0.000     0.000     0.000      107        0        0        0        9        2        5    21.847       89     40.0    8.730   -9.900     2.03    0.000    0.000       30        8     2068  Maize_Improved_Cahul_10May_Optimal_26_MOHC.PRM
  Tot(89)       10        5     2069    104.6    576.2   1445.9   438.00      0.0    104.0      0.6      0.0      0.0    102.1       48    278.5    280.5       81     0.000     0.000     0.000     0.000      107        0        0        0        7        8       18    16.910       68     39.4    6.671   -9.900     1.75    0.000    0.000       30        8     2069  Maize_Improved_Cahul_10May_Optimal_26_MOHC.PRM
  Tot(90)       10        5     2070     60.4    601.8   1462.7   437.00      0.0     52.8      7.6     22.3      0.0     61.3       22    234.5    234.5       77     0.000     0.000     0.000     0.000       98        0        0        0        7       17       19    13.233       54     34.8    4.607   -9.900     1.56    0.000    0.000       30        8     2070  Maize_Improved_Cahul_10May_Optimal_26_MOHC.PRM
  Tot(91)       10        5     2071    247.2    573.5   1413.2   437.00      0.0    222.0     25.2      5.9      0.0    125.2       55    299.7    297.4       86     0.000     0.000     0.000     0.000      107        0        0        0        5        8       10    18.889       78     40.0    7.549   -9.900     1.78    0.000    0.000       30        8     2071  Maize_Improved_Cahul_10May_Optimal_26_MOHC.PRM
  Tot(92)       10        5     2072     96.2    590.3   1407.6   436.00      0.0     93.6      2.6      2.9      0.0    104.2       42    260.1    262.4       80     0.000     0.000     0.000     0.000      105        0        0        0        7       14       18    15.665       63     39.8    6.234   -9.900     1.71    0.000    0.000       30        8     2072  Maize_Improved_Cahul_10May_Optimal_26_MOHC.PRM
  Tot(93)       10        5     2073     54.1    699.7   1636.6   436.00      0.0     54.0      0.1      0.0      0.0     87.2       22    220.6    220.6       77     0.000     0.000     0.000     0.000       93        0        0        0        1       27       19    10.980       44     30.0    3.292   -9.900     1.08    0.000    0.000       30        8     2073  Maize_Improved_Cahul_10May_Optimal_26_MOHC.PRM
  Tot(94)       10        5     2074    100.7    629.6   1400.4   435.00      0.0    100.6      0.1      0.0      0.0     94.6       35    281.6    281.6       81     0.000     0.000     0.000     0.000      107        0        0        0        8        9       18    16.275       66     39.5    6.435   -9.900     1.71    0.000    0.000       30        8     2074  Maize_Improved_Cahul_10May_Optimal_26_MOHC.PRM
  Tot(95)       10        5     2075    115.2    580.4   1450.2   435.00      0.0    114.7      0.5      0.9      0.0    126.8       55    258.2    258.2       78     0.000     0.000     0.000     0.000      106        0        0        0        6        8       19    15.813       65     39.4    6.227   -9.900     1.62    0.000    0.000       30        8     2075  Maize_Improved_Cahul_10May_Optimal_26_MOHC.PRM
  Tot(96)       10        5     2076     78.6    716.7   1642.9   434.00      0.0     77.7      0.9      0.0      0.0     99.0       28    243.8    243.8       73     0.000     0.000     0.000     0.000       94        0        0        0        3       19       20    12.224       49     28.5    3.479   -9.900     1.02    0.000    0.000       30        8     2076  Maize_Improved_Cahul_10May_Optimal_26_MOHC.PRM
  Tot(97)       10        5     2077     75.0    702.9   1517.6   433.00      0.0     75.0      0.0      0.0      0.0    102.5       28    234.0    234.0       76     0.000     0.000     0.000     0.000       94        0        0        0        3       22       20    11.722       47     30.7    3.604   -9.900     1.08    0.000    0.000       30        8     2077  Maize_Improved_Cahul_10May_Optimal_26_MOHC.PRM
  Tot(98)       10        5     2078    158.1    614.4   1552.6   433.00      0.0    157.6      0.5      0.0      0.0    140.0       59    295.8    295.7       81     0.000     0.000     0.000     0.000      107        0        0        0        2        8       17    17.434       70     39.4    6.869   -9.900     1.58    0.000    0.000       30        8     2078  Maize_Improved_Cahul_10May_Optimal_26_MOHC.PRM
  Tot(99)       10        5     2079    113.7    648.4   1524.5   432.00      0.0    110.9      2.8      0.0      0.0    107.0       36    256.4    256.3       77     0.000     0.000     0.000     0.000      107        0        0        0        5       13       17    14.239       58     39.5    5.629   -9.900     1.55    0.000    0.000       30        8     2079  Maize_Improved_Cahul_10May_Optimal_26_MOHC.PRM
 Tot(100)       10        5     2080     91.2    650.8   1502.4   432.00      0.0     90.2      1.0      3.0      0.0    105.7       37    252.9    253.1       75     0.000     0.000     0.000     0.000       98        0        0        0        6       15       20    13.562       55     34.5    4.672   -9.900     1.31    0.000    0.000       30        8     2080  Maize_Improved_Cahul_10May_Optimal_26_MOHC.PRM
 Tot(101)       10        5     2081     86.5    705.0   1667.7   431.00      0.0     86.4      0.1      0.0      0.0    109.8       29    232.6    232.6       75     0.000     0.000     0.000     0.000       94        0        0        0        1       23       20    11.637       47     30.7    3.576   -9.900     1.08    0.000    0.000       30        8     2081  Maize_Improved_Cahul_10May_Optimal_26_MOHC.PRM
 Tot(102)       10        5     2082     66.2    707.0   1594.5   431.00      0.0     64.6      1.6      7.4      0.0     89.6       24    221.9    221.9       75     0.000     0.000     0.000     0.000       92        0        0        0        3       25       20    10.839       44     28.8    3.123   -9.900     1.01    0.000    0.000       30        8     2082  Maize_Improved_Cahul_10May_Optimal_26_MOHC.PRM
 Tot(103)       10        5     2083    101.8    682.6   1595.9   430.00      0.0    101.3      0.5      0.0      0.0    109.4       31    230.9    230.9       75     0.000     0.000     0.000     0.000       93        0        0        0        3       23       19    11.336       46     30.1    3.407   -9.900     1.08    0.000    0.000       30        8     2083  Maize_Improved_Cahul_10May_Optimal_26_MOHC.PRM
 Tot(104)       10        5     2084    102.0    663.7   1574.4   429.00      0.0    102.0      0.0      0.0      0.0     93.5       34    279.9    279.9       77     0.000     0.000     0.000     0.000      101        0        0        0        5       10       20    14.558       59     37.1    5.402   -9.900     1.46    0.000    0.000       30        8     2084  Maize_Improved_Cahul_10May_Optimal_26_MOHC.PRM
 Tot(105)       10        5     2085     64.6    596.6   1485.7   429.00      0.0     64.6      0.0      0.0      0.0     85.4       32    246.3    246.3       78     0.000     0.000     0.000     0.000      101        0        0        0        6       14       19    14.442       59     37.7    5.452   -9.900     1.68    0.000    0.000       30        8     2085  Maize_Improved_Cahul_10May_Optimal_26_MOHC.PRM
 Tot(106)       10        5     2086    137.0    587.5   1404.4   428.00      0.0    121.9     15.1     21.6      0.0    104.3       46    270.9    270.9       80     0.000     0.000     0.000     0.000      105        0        0        0        7        6       19    15.731       64     39.3    6.189   -9.900     1.65    0.000    0.000       30        8     2086  Maize_Improved_Cahul_10May_Optimal_26_MOHC.PRM
 Tot(107)       10        5     2087     97.1    704.6   1637.4   428.00      0.0     96.7      0.4      0.2      0.0    108.4       28    225.7    225.7       77     0.000     0.000     0.000     0.000       92        0        0        0        2       27       19    10.791       44     28.9    3.118   -9.900     0.99    0.000    0.000       30        8     2087  Maize_Improved_Cahul_10May_Optimal_26_MOHC.PRM
 Tot(108)       10        5     2088    112.4    589.5   1419.6   427.00      0.0    109.8      2.6      8.7      0.0    101.3       41    244.3    244.3       76     0.000     0.000     0.000     0.000       99        0        0        0       10       14       19    13.886       57     35.7    4.957   -9.900     1.47    0.000    0.000       30        8     2088  Maize_Improved_Cahul_10May_Optimal_26_MOHC.PRM
 Tot(109)       10        5     2089    150.9    600.9   1540.4   427.00      0.0    150.1      0.8      0.0      0.0    128.5       50    288.4    287.7       83     0.000     0.000     0.000     0.000      107        0        0        0        2       15       14    17.261       70     40.0    6.901   -9.900     1.66    0.000    0.000       30        8     2089  Maize_Improved_Cahul_10May_Optimal_26_MOHC.PRM
 Tot(110)       10        5     2090     65.9    666.1   1602.1   426.00      0.0     65.0      0.9      2.4      0.0     85.5       26    245.1    245.8       79     0.000     0.000     0.000     0.000       98        0        0        0        2       20       19    13.257       54     34.9    4.632   -9.900     1.41    0.000    0.000       30        8     2090  Maize_Improved_Cahul_10May_Optimal_26_MOHC.PRM
 Tot(111)       10        5     2091    139.8    601.8   1511.4   425.00      0.0    138.3      1.5      1.4      0.0    109.4       45    294.9    293.7       82     0.000     0.000     0.000     0.000      107        0        0        0        3       16       13    17.708       72     39.9    7.068   -9.900     1.75    0.000    0.000       30        8     2091  Maize_Improved_Cahul_10May_Optimal_26_MOHC.PRM
 Tot(112)       10        5     2092     91.4    576.9   1423.6   425.00      0.0     91.2      0.2      0.5      0.0     86.8       41    283.7    284.6       80     0.000     0.000     0.000     0.000      107        0        0        0       10        7       16    17.707       72     39.4    6.969   -9.900     1.88    0.000    0.000       30        8     2092  Maize_Improved_Cahul_10May_Optimal_26_MOHC.PRM
 Tot(113)       10        5     2093     75.3    637.6   1520.2   424.00      0.0     75.2      0.1      0.0      0.0     88.9       32    259.6    259.9       77     0.000     0.000     0.000     0.000      100        0        0        0        5       13       19    14.185       58     36.5    5.182   -9.900     1.49    0.000    0.000       30        8     2093  Maize_Improved_Cahul_10May_Optimal_26_MOHC.PRM
 Tot(114)       10        5     2094    167.3    570.6   1411.7   424.00      0.0    112.1     55.2     35.7      0.0     97.8       41    249.5    249.5       80     0.000     0.000     0.000     0.000      102        0        0        0        8       15       19    14.702       60     38.7    5.695   -9.900     1.64    0.000    0.000       30        8     2094  Maize_Improved_Cahul_10May_Optimal_26_MOHC.PRM
 Tot(115)       10        5     2095    140.1    603.1   1439.1   423.00      0.0    138.6      1.5      0.4      0.0    103.1       50    314.9    314.5       81     0.000     0.000     0.000     0.000      107        0        0        0        9        2       16    18.127       74     39.2    7.105   -9.900     1.70    0.000    0.000       30        8     2095  Maize_Improved_Cahul_10May_Optimal_26_MOHC.PRM
 Tot(116)       10        5     2096     55.8    716.7   1648.5   423.00      0.0     55.8      0.0      0.0      0.0     88.4       21    224.6    225.0       78     0.000     0.000     0.000     0.000       96        0        0        0        1       29       18    11.027       45     33.0    3.637   -9.900     1.19    0.000    0.000       30        8     2096  Maize_Improved_Cahul_10May_Optimal_26_MOHC.PRM
 Tot(117)       10        5     2097     75.1    623.2   1524.2   422.00      0.0     74.8      0.3      0.0      0.0     95.3       36    255.1    255.1       76     0.000     0.000     0.000     0.000      102        0        0        0        5       10       20    14.681       60     38.1    5.596   -9.900     1.60    0.000    0.000       30        8     2097  Maize_Improved_Cahul_10May_Optimal_26_MOHC.PRM
 Tot(118)       10        5     2098     79.0    600.9   1334.1   422.00      0.0     74.7      4.3     12.1      0.0     65.4       27    272.5    272.0       77     0.000     0.000     0.000     0.000      107        0        0        0       11       19       18    15.808       65     40.0    6.318   -9.900     1.87    0.000    0.000       30        8     2098  Maize_Improved_Cahul_10May_Optimal_26_MOHC.PRM
 Tot(119)       10        5     2099     67.3    747.0   1618.9   421.00      0.0     55.7     11.6     16.2      0.0     72.4       18    221.5    222.0       73     0.000     0.000     0.000     0.000       89        0        0        0        5       27       20     9.984       40     25.7    2.566   -9.900     0.88    0.000    0.000       30        8     2099  Maize_Improved_Cahul_10May_Optimal_26_MOHC.PRM
