AquaCrop 7.0 (August 2022) - Output created on (date) : 26-06-2023   at (time) : 11:07:59

    RunNr     Day1   Month1    Year1     Rain      ETo       GD     CO2      Irri   Infilt   Runoff    Drain   Upflow        E     E/Ex       Tr      TrW   Tr/Trx    SaltIn   SaltOut    SaltUp  SaltProf     Cycle   SaltStr  FertStr  WeedStr  TempStr   ExpStr   StoStr  BioMass  Brelative   HI    Y(dry)  Y(fresh)    WPet      Bin     Bout     DayN   MonthN    YearN
                                           mm       mm  degC.day    ppm        mm       mm       mm       mm       mm       mm        %       mm       mm        %    ton/ha    ton/ha    ton/ha    ton/ha      days       %        %        %        %        %        %    ton/ha        %       %    ton/ha   ton/ha    kg/m3   ton/ha   ton/ha
   Tot(1)       10        5     1981    146.8    507.3   1246.2   340.11      0.0    146.0      0.8      0.6      0.0     81.9       39    297.8    296.3       98     0.000     0.000     0.000     0.000      107        0        0        0       10        3        2    20.395       94     40.0    8.161   -9.900     2.15    0.000    0.000       30        8     1981  Maize_Improved_Cahul_10May_Optimal_85_MOHC.PRM
   Tot(2)       10        5     1982    232.4    490.7   1271.5   341.22      0.0    231.7      0.7      0.0      0.0    105.7       49    286.3    285.7      100     0.000     0.000     0.000     0.000      107        0        0        0        6        2        0    21.546       96     40.0    8.620   -9.900     2.20    0.000    0.000       30        8     1982  Maize_Improved_Cahul_10May_Optimal_85_MOHC.PRM
   Tot(3)       10        5     1983    291.5    495.5   1304.3   342.84      0.0    264.9     26.6     27.8      0.0    104.9       49    291.6    291.7      100     0.000     0.000     0.000     0.000      107        0        0        0        6        1        0    21.606       97     40.0    8.652   -9.900     2.18    0.000    0.000       30        8     1983  Maize_Improved_Cahul_10May_Optimal_85_MOHC.PRM
   Tot(4)       10        5     1984    204.1    468.4   1129.3   344.40      0.0    199.7      4.4     10.1      0.0    128.4       68    271.8    271.2      100     0.000     0.000     0.000     0.000      107        0        0        0       12        1        0    20.545       97     40.1    8.230   -9.900     2.06    0.000    0.000       30        8     1984  Maize_Improved_Cahul_10May_Optimal_85_MOHC.PRM
   Tot(5)       10        5     1985    291.0    486.1   1240.6   345.87      0.0    263.9     27.1     43.6      0.0    119.4       59    287.3    287.4      100     0.000     0.000     0.000     0.000      107        0        0        0        9        1        0    21.016       97     40.0    8.406   -9.900     2.07    0.000    0.000       30        8     1985  Maize_Improved_Cahul_10May_Optimal_85_MOHC.PRM
   Tot(6)       10        5     1986    174.4    542.4   1329.9   347.19      0.0    173.4      1.0      0.0      0.0    106.9       48    303.8    303.3       93     0.000     0.000     0.000     0.000      107        0        0        0        5        4        5    20.093       89     40.0    8.038   -9.900     1.96    0.000    0.000       30        8     1986  Maize_Improved_Cahul_10May_Optimal_85_MOHC.PRM
   Tot(7)       10        5     1987    239.8    498.8   1219.8   348.98      0.0    231.8      8.0      0.0      0.0     98.0       51    311.6    312.5      100     0.000     0.000     0.000     0.000      107        0        0        0       12        2        0    21.334       97     40.0    8.543   -9.900     2.09    0.000    0.000       30        8     1987  Maize_Improved_Cahul_10May_Optimal_85_MOHC.PRM
   Tot(8)       10        5     1988    149.3    506.3   1314.4   351.45      0.0    147.7      1.6      4.3      0.0    126.5       69    288.0    289.1       87     0.000     0.000     0.000     0.000      107        0        0        0        6        5       11    18.651       81     39.8    7.423   -9.900     1.79    0.000    0.000       30        8     1988  Maize_Improved_Cahul_10May_Optimal_85_MOHC.PRM
   Tot(9)       10        5     1989    210.2    497.8   1242.2   352.89      0.0    209.8      0.4      0.0      0.0    102.8       52    309.7    309.8      100     0.000     0.000     0.000     0.000      107        0        0        0       13        3        0    21.780       97     40.1    8.736   -9.900     2.12    0.000    0.000       30        8     1989  Maize_Improved_Cahul_10May_Optimal_85_MOHC.PRM
  Tot(10)       10        5     1990    134.5    533.2   1221.9   354.16      0.0    134.2      0.3      0.0      0.0    116.5       55    289.2    289.1       88     0.000     0.000     0.000     0.000      107        0        0        0       13        7       10    18.809       83     40.1    7.535   -9.900     1.86    0.000    0.000       30        8     1990  Maize_Improved_Cahul_10May_Optimal_85_MOHC.PRM
  Tot(11)       10        5     1991    366.2    440.5   1237.7   355.48      0.0    323.8     42.4     60.6      0.0    117.5       74    294.8    293.7      100     0.000     0.000     0.000     0.000      107        0        0        0       14        0        0    22.536       98     40.0    9.017   -9.900     2.19    0.000    0.000       30        8     1991  Maize_Improved_Cahul_10May_Optimal_85_MOHC.PRM
  Tot(12)       10        5     1992    169.4    527.1   1280.4   356.27      0.0    168.9      0.5      0.0      0.0    126.8       67    309.1    309.8       89     0.000     0.000     0.000     0.000      107        0        0        0       13        3        8    19.817       86     39.9    7.914   -9.900     1.82    0.000    0.000       30        8     1992  Maize_Improved_Cahul_10May_Optimal_85_MOHC.PRM
  Tot(13)       10        5     1993    217.3    512.9   1209.9   356.95      0.0    204.6     12.7     26.5      0.0    123.0       62    298.8    299.9       96     0.000     0.000     0.000     0.000      107        0        0        0       10        3        3    19.948       93     40.0    7.980   -9.900     1.89    0.000    0.000       30        8     1993  Maize_Improved_Cahul_10May_Optimal_85_MOHC.PRM
  Tot(14)       10        5     1994    230.6    531.5   1344.3   358.63      0.0    214.7     15.9     36.0      0.0     96.0       43    312.1    310.0       96     0.000     0.000     0.000     0.000      107        0        0        0        8        7        3    20.748       90     40.0    8.300   -9.900     2.03    0.000    0.000       30        8     1994  Maize_Improved_Cahul_10May_Optimal_85_MOHC.PRM
  Tot(15)       10        5     1995    166.2    526.5   1355.9   360.62      0.0    161.7      4.5      6.3      0.0     97.6       46    312.7    314.0       93     0.000     0.000     0.000     0.000      107        0        0        0        6        6        5    20.896       89     40.1    8.371   -9.900     2.04    0.000    0.000       30        8     1995  Maize_Improved_Cahul_10May_Optimal_85_MOHC.PRM
  Tot(16)       10        5     1996    151.7    560.7   1318.1   362.37      0.0    141.8      9.9      0.0      0.0    102.0       39    261.5    260.9       87     0.000     0.000     0.000     0.000      107        0        0        0        7       16        9    16.783       74     40.3    6.767   -9.900     1.86    0.000    0.000       30        8     1996  Maize_Improved_Cahul_10May_Optimal_85_MOHC.PRM
  Tot(17)       10        5     1997    425.5    464.4   1256.1   363.47      0.0    381.1     44.4      1.2      0.0    126.4       65    283.3    283.3      100     0.000     0.000     0.000     0.000      107        0        0        0       10        1        0    22.463       97     40.0    8.986   -9.900     2.19    0.000    0.000       30        8     1997  Maize_Improved_Cahul_10May_Optimal_85_MOHC.PRM
  Tot(18)       10        5     1998    211.3    512.8   1294.4   366.50      0.0    207.5      3.8      4.1      0.0    123.2       66    307.8    308.4       92     0.000     0.000     0.000     0.000      107        0        0        0       11        2        6    20.138       89     39.9    8.039   -9.900     1.87    0.000    0.000       30        8     1998  Maize_Improved_Cahul_10May_Optimal_85_MOHC.PRM
  Tot(19)       10        5     1999    300.7    547.1   1408.0   368.14      0.0    285.1     15.6      0.0      0.0    114.9       52    345.3    344.0      100     0.000     0.000     0.000     0.000      107        0        0        0        6        2        0    22.804       96     40.1    9.136   -9.900     1.99    0.000    0.000       30        8     1999  Maize_Improved_Cahul_10May_Optimal_85_MOHC.PRM
  Tot(20)       10        5     2000     73.7    615.7   1340.3   369.41      0.0     73.7      0.0      0.0      0.0     75.3       25    268.2    270.2       84     0.000     0.000     0.000     0.000      107        0        0        0        6       14       14    16.070       70     39.8    6.396   -9.900     1.86    0.000    0.000       30        8     2000  Maize_Improved_Cahul_10May_Optimal_85_MOHC.PRM
  Tot(21)       10        5     2001    197.2    553.7   1323.0   371.07      0.0    168.5     28.7     19.5      0.0    113.2       53    307.6    307.5       87     0.000     0.000     0.000     0.000      107        0        0        0        8        2       11    19.368       82     39.8    7.700   -9.900     1.83    0.000    0.000       30        8     2001  Maize_Improved_Cahul_10May_Optimal_85_MOHC.PRM
  Tot(22)       10        5     2002    295.7    563.3   1406.9   373.16      0.0    258.3     37.4      0.0      0.0    104.6       42    331.0    328.5       98     0.000     0.000     0.000     0.000      107        0        0        0        5       18        1    21.546       90     40.7    8.772   -9.900     2.01    0.000    0.000       30        8     2002  Maize_Improved_Cahul_10May_Optimal_85_MOHC.PRM
  Tot(23)       10        5     2003    102.9    601.8   1428.1   375.80      0.0    102.9      0.0      0.0      0.0     89.3       30    285.7    287.4       87     0.000     0.000     0.000     0.000      107        0        0        0        3       14       10    18.446       78     40.0    7.378   -9.900     1.97    0.000    0.000       30        8     2003  Maize_Improved_Cahul_10May_Optimal_85_MOHC.PRM
  Tot(24)       10        5     2004    274.3    515.6   1240.7   377.49      0.0    268.8      5.5      2.4      0.0    129.5       63    324.4    322.6      100     0.000     0.000     0.000     0.000      107        0        0        0       11        7        0    22.262       95     40.1    8.921   -9.900     1.97    0.000    0.000       30        8     2004  Maize_Improved_Cahul_10May_Optimal_85_MOHC.PRM
  Tot(25)       10        5     2005    357.3    523.6   1316.6   379.80      0.0    344.1     13.2      4.4      0.0    139.8       67    329.1    328.9      100     0.000     0.000     0.000     0.000      107        0        0        0        7        2        0    22.959       97     40.0    9.187   -9.900     1.96    0.000    0.000       30        8     2005  Maize_Improved_Cahul_10May_Optimal_85_MOHC.PRM
  Tot(26)       10        5     2006    170.7    575.9   1338.1   381.90      0.0    162.8      7.9     12.6      0.0    104.5       43    294.1    296.6       86     0.000     0.000     0.000     0.000      107        0        0        0        7       11       10    18.177       77     40.1    7.292   -9.900     1.83    0.000    0.000       30        8     2006  Maize_Improved_Cahul_10May_Optimal_85_MOHC.PRM
  Tot(27)       10        5     2007    117.6    680.9   1520.4   383.77      0.0    116.3      1.3      0.0      0.0     96.8       29    285.5    285.5       80     0.000     0.000     0.000     0.000      107        0        0        0        1       19       16    15.256       63     40.1    6.116   -9.900     1.60    0.000    0.000       30        8     2007  Maize_Improved_Cahul_10May_Optimal_85_MOHC.PRM
  Tot(28)       10        5     2008    142.7    609.1   1384.2   385.59      0.0    142.7      0.0      0.0      0.0     98.7       38    308.0    307.9       85     0.000     0.000     0.000     0.000      107        0        0        0        4       12       12    18.243       76     39.8    7.266   -9.900     1.79    0.000    0.000       30        8     2008  Maize_Improved_Cahul_10May_Optimal_85_MOHC.PRM
  Tot(29)       10        5     2009    135.2    618.6   1416.0   387.37      0.0    134.6      0.6      0.0      0.0     85.7       32    323.2    323.3       88     0.000     0.000     0.000     0.000      107        0        0        0        3        7       10    19.121       79     39.8    7.608   -9.900     1.86    0.000    0.000       30        8     2009  Maize_Improved_Cahul_10May_Optimal_85_MOHC.PRM
  Tot(30)       10        5     2010    257.4    553.9   1446.3   389.85      0.0    239.4     18.0      2.3      0.0    126.6       57    342.4    341.7       99     0.000     0.000     0.000     0.000      107        0        0        0        7        1        1    22.564       96     40.0    9.025   -9.900     1.92    0.000    0.000       30        8     2010  Maize_Improved_Cahul_10May_Optimal_85_MOHC.PRM
  Tot(31)       10        5     2011    170.0    575.1   1394.0   391.63      0.0    165.7      4.3      2.2      0.0    115.2       49    317.4    317.6       90     0.000     0.000     0.000     0.000      107        0        0        0        4        4        7    20.337       86     40.0    8.128   -9.900     1.88    0.000    0.000       30        8     2011  Maize_Improved_Cahul_10May_Optimal_85_MOHC.PRM
  Tot(32)       10        5     2012    235.5    644.6   1476.6   393.82      0.0    228.5      7.0      8.0      0.0    149.1       58    329.1    328.2       83     0.000     0.000     0.000     0.000      107        0        0        0        5       10       12    18.023       75     39.8    7.165   -9.900     1.50    0.000    0.000       30        8     2012  Maize_Improved_Cahul_10May_Optimal_85_MOHC.PRM
  Tot(33)       10        5     2013    245.8    572.9   1442.3   396.48      0.0    233.1     12.7      0.0      0.0    124.3       54    341.0    341.0       94     0.000     0.000     0.000     0.000      107        0        0        0        3        3        4    21.943       91     39.9    8.762   -9.900     1.88    0.000    0.000       30        8     2013  Maize_Improved_Cahul_10May_Optimal_85_MOHC.PRM
  Tot(34)       10        5     2014    231.2    553.0   1388.0   398.55      0.0    226.5      4.7      7.4      0.0    138.1       67    337.2    337.9       94     0.000     0.000     0.000     0.000      107        0        0        0        4        4        5    21.674       90     40.1    8.684   -9.900     1.83    0.000    0.000       30        8     2014  Maize_Improved_Cahul_10May_Optimal_85_MOHC.PRM
  Tot(35)       10        5     2015    138.4    632.1   1420.5   402.00      0.0    136.8      1.6      0.0      0.0     89.7       32    311.5    311.8       85     0.000     0.000     0.000     0.000      107        0        0        0        4        8       10    18.452       77     39.8    7.349   -9.900     1.83    0.000    0.000       30        8     2015  Maize_Improved_Cahul_10May_Optimal_85_MOHC.PRM
  Tot(36)       10        5     2016    181.4    575.2   1403.1   404.00      0.0    180.6      0.8      0.8      0.0    142.2       67    308.5    308.7       84     0.000     0.000     0.000     0.000      107        0        0        0        8        7       13    18.472       77     39.8    7.360   -9.900     1.63    0.000    0.000       30        8     2016  Maize_Improved_Cahul_10May_Optimal_85_MOHC.PRM
  Tot(37)       10        5     2017    261.1    575.3   1379.0   407.00      0.0    232.5     28.6      1.2      0.0    100.6       45    364.2    363.5       99     0.000     0.000     0.000     0.000      107        0        0        0        6        3        1    22.933       95     40.1    9.192   -9.900     1.98    0.000    0.000       30        8     2017  Maize_Improved_Cahul_10May_Optimal_85_MOHC.PRM
  Tot(38)       10        5     2018    166.6    568.1   1494.6   410.00      0.0    161.1      5.5      0.0      0.0     86.1       34    320.7    319.9       97     0.000     0.000     0.000     0.000      107        0        0        0        2        6        2    22.262       92     40.1    8.926   -9.900     2.19    0.000    0.000       30        8     2018  Maize_Improved_Cahul_10May_Optimal_85_MOHC.PRM
  Tot(39)       10        5     2019    183.6    599.5   1473.9   413.00      0.0    182.0      1.6      1.9      0.0    151.2       63    306.1    307.8       84     0.000     0.000     0.000     0.000      107        0        0        0        2        8       13    18.928       78     39.7    7.520   -9.900     1.64    0.000    0.000       30        8     2019  Maize_Improved_Cahul_10May_Optimal_85_MOHC.PRM
  Tot(40)       10        5     2020     78.4    677.0   1540.3   416.00      0.0     78.1      0.3      0.0      0.0     98.0       29    246.6    247.3       78     0.000     0.000     0.000     0.000       98        0        0        0        4       23       19    12.812       52     34.8    4.465   -9.900     1.30    0.000    0.000       30        8     2020  Maize_Improved_Cahul_10May_Optimal_85_MOHC.PRM
  Tot(41)       10        5     2021     65.9    690.3   1525.2   419.00      0.0     62.7      3.2     11.7      0.0     84.1       22    224.5    224.5       78     0.000     0.000     0.000     0.000       95        0        0        0        5       27       19    11.305       46     32.0    3.615   -9.900     1.19    0.000    0.000       30        8     2021  Maize_Improved_Cahul_10May_Optimal_85_MOHC.PRM
  Tot(42)       10        5     2022     44.8    649.5   1454.5   422.00      0.0     44.7      0.1      0.0      0.0     64.2       21    252.0    252.0       78     0.000     0.000     0.000     0.000      101        0        0        0        9       17       19    13.868       57     37.4    5.191   -9.900     1.65    0.000    0.000       30        8     2022  Maize_Improved_Cahul_10May_Optimal_85_MOHC.PRM
  Tot(43)       10        5     2023     96.9    638.9   1444.0   425.00      0.0     96.9      0.0      0.0      0.0     98.1       37    267.0    266.8       74     0.000     0.000     0.000     0.000      107        0        0        0        8       14       20    14.750       61     39.5    5.827   -9.900     1.60    0.000    0.000       30        8     2023  Maize_Improved_Cahul_10May_Optimal_85_MOHC.PRM
  Tot(44)       10        5     2024     86.3    637.2   1496.7   428.00      0.0     83.4      2.9      9.6      0.0    100.7       34    242.5    242.7       76     0.000     0.000     0.000     0.000       99        0        0        0        6       17       19    13.641       55     35.5    4.844   -9.900     1.42    0.000    0.000       30        8     2024  Maize_Improved_Cahul_10May_Optimal_85_MOHC.PRM
  Tot(45)       10        5     2025    172.3    632.0   1526.0   431.00      0.0    168.1      4.2      6.2      0.0    138.7       56    298.1    297.5       78     0.000     0.000     0.000     0.000      107        0        0        0        2        7       18    17.018       69     24.1    4.108   -9.900     0.94    0.000    0.000       30        8     2025  Maize_Improved_Cahul_10May_Optimal_85_MOHC.PRM
  Tot(46)       10        5     2026    100.6    630.3   1499.5   435.00      0.0     96.6      4.0      3.3      0.0    115.9       42    249.5    250.1       74     0.000     0.000     0.000     0.000      104        0        0        0        5       16       21    14.454       58     39.3    5.678   -9.900     1.56    0.000    0.000       30        8     2026  Maize_Improved_Cahul_10May_Optimal_85_MOHC.PRM
  Tot(47)       10        5     2027    149.6    591.5   1496.8   438.00      0.0    143.4      6.2     17.7      0.0     94.2       40    302.7    302.0       84     0.000     0.000     0.000     0.000      107        0        0        0        2       16       13    18.452       75     40.2    7.423   -9.900     1.87    0.000    0.000       30        8     2027  Maize_Improved_Cahul_10May_Optimal_85_MOHC.PRM
  Tot(48)       10        5     2028     83.8    668.9   1502.6   442.00      0.0     83.8      0.0      0.0      0.0    105.2       35    249.1    249.9       76     0.000     0.000     0.000     0.000       97        0        0        0        8       15       20    13.259       54     33.6    4.450   -9.900     1.26    0.000    0.000       30        8     2028  Maize_Improved_Cahul_10May_Optimal_85_MOHC.PRM
  Tot(49)       10        5     2029    155.7    596.5   1518.6   445.00      0.0    152.3      3.4      0.7      0.0    123.6       56    306.6    306.0       82     0.000     0.000     0.000     0.000      107        0        0        0        3        7       15    18.539       75     39.7    7.359   -9.900     1.71    0.000    0.000       30        8     2029  Maize_Improved_Cahul_10May_Optimal_85_MOHC.PRM
  Tot(50)       10        5     2030    218.5    571.9   1405.0   449.00      0.0    192.2     26.3     32.1      0.0    138.6       70    299.2    299.2       81     0.000     0.000     0.000     0.000      107        0        0        0        8        8       15    18.360       74     39.8    7.302   -9.900     1.67    0.000    0.000       30        8     2030  Maize_Improved_Cahul_10May_Optimal_85_MOHC.PRM
  Tot(51)       10        5     2031    128.2    648.5   1590.7   452.00      0.0    118.1     10.1     24.5      0.0    111.1       35    251.5    252.1       79     0.000     0.000     0.000     0.000      100        0        0        0        4       24       18    13.869       55     36.9    5.117   -9.900     1.43    0.000    0.000       30        8     2031  Maize_Improved_Cahul_10May_Optimal_85_MOHC.PRM
  Tot(52)       10        5     2032    207.5    563.2   1438.5   456.00      0.0    196.6     10.9     25.7      0.0    111.0       49    294.6    292.7       86     0.000     0.000     0.000     0.000      107        0        0        0        7       20        9    18.584       75     40.5    7.523   -9.900     1.86    0.000    0.000       30        8     2032  Maize_Improved_Cahul_10May_Optimal_85_MOHC.PRM
  Tot(53)       10        5     2033    160.6    643.6   1567.0   460.00      0.0    152.2      8.4     17.0      0.0    141.2       47    255.2    257.1       78     0.000     0.000     0.000     0.000      102        0        0        0        4       17       18    14.888       60     38.7    5.756   -9.900     1.48    0.000    0.000       30        8     2033  Maize_Improved_Cahul_10May_Optimal_85_MOHC.PRM
  Tot(54)       10        5     2034     92.4    731.0   1612.5   464.00      0.0     91.6      0.8      0.0      0.0    119.5       33    231.4    231.4       73     0.000     0.000     0.000     0.000       91        0        0        0        5       24       21    11.264       45     18.7    2.111   -9.900     0.61    0.000    0.000       30        8     2034  Maize_Improved_Cahul_10May_Optimal_85_MOHC.PRM
  Tot(55)       10        5     2035     87.4    640.9   1484.9   468.00      0.0     85.5      1.9      3.9      0.0     98.6       36    254.4    254.4       76     0.000     0.000     0.000     0.000      100        0        0        0        8       12       20    14.288       57     36.4    5.203   -9.900     1.48    0.000    0.000       30        8     2035  Maize_Improved_Cahul_10May_Optimal_85_MOHC.PRM
  Tot(56)       10        5     2036     46.2    710.3   1627.6   472.00      0.0     46.2      0.0      0.0      0.0     78.6       21    226.3    226.3       74     0.000     0.000     0.000     0.000       93        0        0        0        3       24       20    11.596       46     17.9    2.075   -9.900     0.68    0.000    0.000       30        8     2036  Maize_Improved_Cahul_10May_Optimal_85_MOHC.PRM
  Tot(57)       10        5     2037    205.9    565.7   1356.9   476.00      0.0    175.5     30.4     37.1      0.0     96.3       44    275.9    274.7       82     0.000     0.000     0.000     0.000      107        0        0        0       11       16       11    16.757       68     40.3    6.756   -9.900     1.81    0.000    0.000       30        8     2037  Maize_Improved_Cahul_10May_Optimal_85_MOHC.PRM
  Tot(58)       10        5     2038    126.8    618.3   1576.0   481.00      0.0    126.7      0.1      0.0      0.0    109.7       47    294.8    295.9       80     0.000     0.000     0.000     0.000      107        0        0        0        6        8       18    17.054       68     39.4    6.725   -9.900     1.66    0.000    0.000       30        8     2038  Maize_Improved_Cahul_10May_Optimal_85_MOHC.PRM
  Tot(59)       10        5     2039     84.7    706.8   1630.6   485.00      0.0     84.4      0.3      0.0      0.0    111.2       31    235.4    235.5       76     0.000     0.000     0.000     0.000       94        0        0        0        4       23       19    12.233       49     31.0    3.794   -9.900     1.10    0.000    0.000       30        8     2039  Maize_Improved_Cahul_10May_Optimal_85_MOHC.PRM
  Tot(60)       10        5     2040     26.7    734.5   1679.6   489.00      0.0     26.7      0.0      0.0      0.0     64.9       15    210.2    210.2       77     0.000     0.000     0.000     0.000       93        0        0        0        1       31       18    10.179       40     30.0    3.058   -9.900     1.12    0.000    0.000       30        8     2040  Maize_Improved_Cahul_10May_Optimal_85_MOHC.PRM
  Tot(61)       10        5     2041     79.3    768.5   1651.3   494.00      0.0     78.7      0.6      0.0      0.0    103.4       26    240.4    240.4       72     0.000     0.000     0.000     0.000       94        0        0        0        4       21       21    11.856       47     30.3    3.595   -9.900     1.05    0.000    0.000       30        8     2041  Maize_Improved_Cahul_10May_Optimal_85_MOHC.PRM
  Tot(62)       10        5     2042    205.6    627.5   1526.3   499.00      0.0    164.9     40.7     63.8      0.0    101.8       38    272.4    272.4       80     0.000     0.000     0.000     0.000      104        0        0        0        4       13       18    15.684       62     39.4    6.185   -9.900     1.66    0.000    0.000       30        8     2042  Maize_Improved_Cahul_10May_Optimal_85_MOHC.PRM
  Tot(63)       10        5     2043     11.9    844.4   1708.0   504.00      0.0     11.9      0.0      0.0      0.0     53.3        9    195.8    195.8       76     0.000     0.000     0.000     0.000       87        0        0        0        2       36       19     8.136       32      9.8    0.801   -9.900     0.33    0.000    0.000       30        8     2043  Maize_Improved_Cahul_10May_Optimal_85_MOHC.PRM
  Tot(64)       10        5     2044    104.4    637.2   1576.7   508.00      0.0    102.6      1.8      1.8      0.0    104.4       40    271.5    271.5       79     0.000     0.000     0.000     0.000      105        0        0        0        3        7       19    16.072       64     39.2    6.305   -9.900     1.68    0.000    0.000       30        8     2044  Maize_Improved_Cahul_10May_Optimal_85_MOHC.PRM
  Tot(65)       10        5     2045    181.2    619.0   1453.6   513.00      0.0    158.2     23.0     14.3      0.0    100.5       43    272.1    270.8       75     0.000     0.000     0.000     0.000      107        0        0        0        5       12       16    15.860       63     39.5    6.264   -9.900     1.68    0.000    0.000       30        8     2045  Maize_Improved_Cahul_10May_Optimal_85_MOHC.PRM
  Tot(66)       10        5     2046    162.6    627.8   1605.8   519.00      0.0    148.8     13.8     33.3      0.0    122.2       47    261.6    262.9       78     0.000     0.000     0.000     0.000      101        0        0        0        3       13       19    14.721       58     37.7    5.543   -9.900     1.45    0.000    0.000       30        8     2046  Maize_Improved_Cahul_10May_Optimal_85_MOHC.PRM
  Tot(67)       10        5     2047     71.5    754.2   1733.2   524.00      0.0     67.1      4.4      9.9      0.0     89.0       21    222.0    222.0       76     0.000     0.000     0.000     0.000       92        0        0        0        2       26       19    11.109       44     13.7    1.519   -9.900     0.49    0.000    0.000       30        8     2047  Maize_Improved_Cahul_10May_Optimal_85_MOHC.PRM
  Tot(68)       10        5     2048     82.9    659.3   1659.8   529.00      0.0     81.5      1.4      0.0      0.0     99.0       34    254.9    254.9       76     0.000     0.000     0.000     0.000      100        0        0        0        2       14       19    14.697       58     36.5    5.357   -9.900     1.52    0.000    0.000       30        8     2048  Maize_Improved_Cahul_10May_Optimal_85_MOHC.PRM
  Tot(69)       10        5     2049     65.9    729.3   1631.3   535.00      0.0     65.9      0.0      0.0      0.0     80.5       22    244.8    244.8       75     0.000     0.000     0.000     0.000       95        0        0        0        2       20       20    12.524       50     31.8    3.983   -9.900     1.25    0.000    0.000       30        8     2049  Maize_Improved_Cahul_10May_Optimal_85_MOHC.PRM
  Tot(70)       10        5     2050     95.2    667.1   1624.5   541.00      0.0     95.2      0.0      0.0      0.0    103.7       34    264.4    264.4       79     0.000     0.000     0.000     0.000      105        0        0        0        5       20       19    15.336       60     39.7    6.090   -9.900     1.66    0.000    0.000       30        8     2050  Maize_Improved_Cahul_10May_Optimal_85_MOHC.PRM
  Tot(71)       10        5     2051     52.2    640.7   1564.2   546.00      0.0     51.7      0.5      1.6      0.0     77.9       28    239.5    239.5       75     0.000     0.000     0.000     0.000       97        0        0        0        5       16       19    13.524       53     30.6    4.132   -9.900     1.31    0.000    0.000       30        8     2051  Maize_Improved_Cahul_10May_Optimal_85_MOHC.PRM
  Tot(72)       10        5     2052    107.5    688.5   1562.1   552.00      0.0    106.7      0.8      2.3      0.0    129.0       39    236.2    236.2       76     0.000     0.000     0.000     0.000       94        0        0        0        5       21       19    12.461       49     31.0    3.858   -9.900     1.07    0.000    0.000       30        8     2052  Maize_Improved_Cahul_10May_Optimal_85_MOHC.PRM
  Tot(73)       10        5     2053    110.9    664.8   1656.5   558.00      0.0    107.9      3.0      2.0      0.0    112.6       39    264.9    264.9       78     0.000     0.000     0.000     0.000      101        0        0        0        2       10       19    14.978       59     18.0    2.697   -9.900     0.72    0.000    0.000       30        8     2053  Maize_Improved_Cahul_10May_Optimal_85_MOHC.PRM
  Tot(74)       10        5     2054    125.2    664.7   1667.3   564.00      0.0    117.7      7.5     13.8      0.0    116.8       40    247.4    247.4       75     0.000     0.000     0.000     0.000       98        0        0        0        2       17       20    13.427       53     34.7    4.657   -9.900     1.29    0.000    0.000       30        8     2054  Maize_Improved_Cahul_10May_Optimal_85_MOHC.PRM
  Tot(75)       10        5     2055     83.2    674.1   1601.7   571.00      0.0     82.5      0.7      6.4      0.0     95.5       33    246.8    246.8       75     0.000     0.000     0.000     0.000       96        0        0        0        5       16       20    13.226       52     32.6    4.311   -9.900     1.27    0.000    0.000       30        8     2055  Maize_Improved_Cahul_10May_Optimal_85_MOHC.PRM
  Tot(76)       10        5     2056    139.8    627.4   1547.4   577.00      0.0    127.9     11.9      9.5      0.0     92.7       39    298.2    297.5       80     0.000     0.000     0.000     0.000      107        0        0        0        3        5       15    17.917       71     39.6    7.096   -9.900     1.82    0.000    0.000       30        8     2056  Maize_Improved_Cahul_10May_Optimal_85_MOHC.PRM
  Tot(77)       10        5     2057    172.5    621.4   1558.3   583.00      0.0    168.0      4.5      3.4      0.0    127.7       58    314.4    314.7       83     0.000     0.000     0.000     0.000      107        0        0        0        5        3       15    18.969       75     39.5    7.484   -9.900     1.69    0.000    0.000       30        8     2057  Maize_Improved_Cahul_10May_Optimal_85_MOHC.PRM
  Tot(78)       10        5     2058     83.0    746.9   1767.3   590.00      0.0     81.7      1.3      2.6      0.0    104.9       26    227.7    228.0       76     0.000     0.000     0.000     0.000       92        0        0        0        2       26       19    11.288       44     12.6    1.424   -9.900     0.43    0.000    0.000       30        8     2058  Maize_Improved_Cahul_10May_Optimal_85_MOHC.PRM
  Tot(79)       10        5     2059    124.9    627.1   1662.0   597.00      0.0    124.9      0.0      0.0      0.0     99.0       40    301.3    300.9       82     0.000     0.000     0.000     0.000      107        0        0        0        2        7       14    19.163       75     39.6    7.583   -9.900     1.89    0.000    0.000       30        8     2059  Maize_Improved_Cahul_10May_Optimal_85_MOHC.PRM
  Tot(80)       10        5     2060     60.4    824.7   1856.0   604.00      0.0     60.4      0.0      0.0      0.0     93.4       19    219.6    220.1       75     0.000     0.000     0.000     0.000       91        0        0        0        1       30       19    10.216       40     10.2    1.045   -9.900     0.34    0.000    0.000       30        8     2060  Maize_Improved_Cahul_10May_Optimal_85_MOHC.PRM
  Tot(81)       10        5     2061     55.3    697.3   1644.0   611.00      0.0     54.7      0.6      0.4      0.0     85.1       25    227.5    227.5       74     0.000     0.000     0.000     0.000       93        0        0        0        7       23       19    12.054       47     27.1    3.271   -9.900     1.06    0.000    0.000       30        8     2061  Maize_Improved_Cahul_10May_Optimal_85_MOHC.PRM
  Tot(82)       10        5     2062     74.4    732.5   1764.1   618.00      0.0     73.3      1.1      0.8      0.0     92.6       26    237.7    237.7       74     0.000     0.000     0.000     0.000       94        0        0        0        1       21       20    12.410       49     30.6    3.794   -9.900     1.20    0.000    0.000       30        8     2062  Maize_Improved_Cahul_10May_Optimal_85_MOHC.PRM
  Tot(83)       10        5     2063     51.8    663.4   1703.7   625.00      0.0     51.8      0.0      0.0      0.0     74.6       27    254.5    254.5       73     0.000     0.000     0.000     0.000      105        0        0        0        1       13       22    15.101       60     38.8    5.855   -9.900     1.78    0.000    0.000       30        8     2063  Maize_Improved_Cahul_10May_Optimal_85_MOHC.PRM
  Tot(84)       10        5     2064     51.5    743.8   1826.6   632.00      0.0     51.5      0.0      0.0      0.0     83.4       20    225.3    225.3       77     0.000     0.000     0.000     0.000       94        0        0        0        1       26       19    11.674       46     30.9    3.603   -9.900     1.21    0.000    0.000       30        8     2064  Maize_Improved_Cahul_10May_Optimal_85_MOHC.PRM
  Tot(85)       10        5     2065     41.8    644.1   1656.4   639.00      0.0     41.8      0.0      0.0      0.0     75.2       24    231.0    231.0       78     0.000     0.000     0.000     0.000      100        0        0        0        1       20       18    13.873       54     36.8    5.105   -9.900     1.67    0.000    0.000       30        8     2065  Maize_Improved_Cahul_10May_Optimal_85_MOHC.PRM
  Tot(86)       10        5     2066     22.0    744.6   1776.3   647.00      0.0     22.0      0.0      0.0      0.0     60.6       15    218.7    218.7       75     0.000     0.000     0.000     0.000       94        0        0        0        0       27       19    11.391       45     30.8    3.505   -9.900     1.29    0.000    0.000       30        8     2066  Maize_Improved_Cahul_10May_Optimal_85_MOHC.PRM
  Tot(87)       10        5     2067     81.0    760.4   1837.2   654.00      0.0     80.6      0.4      0.0      0.0     97.9       26    246.2    246.2       74     0.000     0.000     0.000     0.000       95        0        0        0        0       20       20    12.497       49     28.0    3.503   -9.900     1.03    0.000    0.000       30        8     2067  Maize_Improved_Cahul_10May_Optimal_85_MOHC.PRM
  Tot(88)       10        5     2068    145.3    663.8   1714.7   662.00      0.0    143.5      1.8      1.8      0.0    126.9       50    294.4    294.2       79     0.000     0.000     0.000     0.000      107        0        0        0        0        8       17    17.991       71     39.2    7.056   -9.900     1.67    0.000    0.000       30        8     2068  Maize_Improved_Cahul_10May_Optimal_85_MOHC.PRM
  Tot(89)       10        5     2069    138.1    660.8   1745.7   669.00      0.0    127.0     11.1      5.6      0.0     89.7       36    309.4    309.3       81     0.000     0.000     0.000     0.000      107        0        0        0        1        4       16    18.415       73     39.4    7.248   -9.900     1.82    0.000    0.000       30        8     2069  Maize_Improved_Cahul_10May_Optimal_85_MOHC.PRM
  Tot(90)       10        5     2070     83.9    750.1   1777.4   677.00      0.0     73.1     10.8     23.2      0.0     81.8       21    228.2    228.5       74     0.000     0.000     0.000     0.000       94        0        0        0        2       22       20    12.231       48     30.9    3.779   -9.900     1.22    0.000    0.000       30        8     2070  Maize_Improved_Cahul_10May_Optimal_85_MOHC.PRM
  Tot(91)       10        5     2071     20.8    795.4   1813.5   685.00      0.0     20.8      0.0      0.0      0.0     60.2       13    210.2    210.2       74     0.000     0.000     0.000     0.000       90        0        0        0        1       30       19    10.100       40     -9.9    0.000   -9.900     0.00    0.000    0.000       30        8     2071  Maize_Improved_Cahul_10May_Optimal_85_MOHC.PRM
  Tot(92)       10        5     2072     96.9    743.2   1803.8   693.00      0.0     93.9      3.0      5.9      0.0    112.4       32    239.9    239.9       75     0.000     0.000     0.000     0.000       95        0        0        0        2       19       20    12.832       51     31.6    4.060   -9.900     1.16    0.000    0.000       30        8     2072  Maize_Improved_Cahul_10May_Optimal_85_MOHC.PRM
  Tot(93)       10        5     2073     98.2    703.7   1719.2   701.00      0.0     96.2      2.0      0.0      0.0     87.2       30    284.3    284.3       79     0.000     0.000     0.000     0.000      105        0        0        0        1        7       19    16.271       64     35.4    5.767   -9.900     1.55    0.000    0.000       30        8     2073  Maize_Improved_Cahul_10May_Optimal_85_MOHC.PRM
  Tot(94)       10        5     2074     65.2    765.1   1776.4   709.00      0.0     63.8      1.4      4.4      0.0     94.1       23    219.7    219.7       74     0.000     0.000     0.000     0.000       92        0        0        0        2       26       20    11.116       44     18.1    2.011   -9.900     0.65    0.000    0.000       30        8     2074  Maize_Improved_Cahul_10May_Optimal_85_MOHC.PRM
  Tot(95)       10        5     2075     52.9    764.7   1845.9   717.00      0.0     48.4      4.5      8.5      0.0     77.1       17    216.4    216.4       76     0.000     0.000     0.000     0.000       94        0        0        0        0       29       18    10.811       43     22.8    2.465   -9.900     0.85    0.000    0.000       30        8     2075  Maize_Improved_Cahul_10May_Optimal_85_MOHC.PRM
  Tot(96)       10        5     2076     98.3    715.8   1712.3   725.00      0.0     91.0      7.3     21.9      0.0     92.6       28    244.4    244.4       76     0.000     0.000     0.000     0.000       97        0        0        0        7       20       19    13.226       52      9.5    1.251   -9.900     0.37    0.000    0.000       30        8     2076  Maize_Improved_Cahul_10May_Optimal_85_MOHC.PRM
  Tot(97)       10        5     2077     61.1    700.4   1744.3   733.00      0.0     60.8      0.3      0.0      0.0     75.9       22    238.2    238.2       76     0.000     0.000     0.000     0.000      107        0        0        0        1       18       18    13.558       54     35.6    4.826   -9.900     1.54    0.000    0.000       30        8     2077  Maize_Improved_Cahul_10May_Optimal_85_MOHC.PRM
  Tot(98)       10        5     2078    104.5    652.0   1753.0   742.00      0.0    104.5      0.0      0.0      0.0    106.0       39    261.5    261.4       79     0.000     0.000     0.000     0.000      107        0        0        0        3       12       18    16.286       65     39.4    6.409   -9.900     1.74    0.000    0.000       30        8     2078  Maize_Improved_Cahul_10May_Optimal_85_MOHC.PRM
  Tot(99)       10        5     2079     65.4    728.1   1809.8   750.00      0.0     64.4      1.0      0.2      0.0     94.6       26    221.6    221.7       75     0.000     0.000     0.000     0.000       92        0        0        0        2       24       19    11.286       45     11.1    1.252   -9.900     0.40    0.000    0.000       30        8     2079  Maize_Improved_Cahul_10May_Optimal_85_MOHC.PRM
 Tot(100)       10        5     2080    123.0    765.7   1872.2   758.00      0.0    121.1      1.9      5.0      0.0    123.5       31    244.3    244.3       78     0.000     0.000     0.000     0.000       98        0        0        0        1       28       19    11.924       47      3.2    0.387   -9.900     0.11    0.000    0.000       30        8     2080  Maize_Improved_Cahul_10May_Optimal_85_MOHC.PRM
 Tot(101)       10        5     2081     90.8    736.2   1909.2   767.00      0.0     90.5      0.3      0.0      0.0    103.1       29    257.7    257.7       77     0.000     0.000     0.000     0.000      101        0        0        0        0       19       19    13.945       56     37.5    5.229   -9.900     1.45    0.000    0.000       30        8     2081  Maize_Improved_Cahul_10May_Optimal_85_MOHC.PRM
 Tot(102)       10        5     2082     68.7    770.7   1911.7   775.00      0.0     56.4     12.3     24.1      0.0     65.2       16    227.6    227.6       76     0.000     0.000     0.000     0.000       95        0        0        0        0       24       19    11.920       48     31.7    3.780   -9.900     1.30    0.000    0.000       30        8     2082  Maize_Improved_Cahul_10May_Optimal_85_MOHC.PRM
 Tot(103)       10        5     2083    105.7    785.2   1825.0   784.00      0.0     95.0     10.7     13.2      0.0    112.5       28    225.0    225.0       73     0.000     0.000     0.000     0.000       92        0        0        0        2       22       20    11.399       46     18.2    2.071   -9.900     0.62    0.000    0.000       30        8     2083  Maize_Improved_Cahul_10May_Optimal_85_MOHC.PRM
 Tot(104)       10        5     2084    323.1    594.1   1632.2   792.00      0.0    204.6    118.5    137.1      0.0     68.4       36    271.8    271.8       80     0.000     0.000     0.000     0.000      107        0        0        0        8        8       21    16.596       67     39.4    6.535   -9.900     1.92    0.000    0.000       30        8     2084  Maize_Improved_Cahul_10May_Optimal_85_MOHC.PRM
 Tot(105)       10        5     2085    105.1    770.4   1921.8   801.00      0.0    103.7      1.4      3.2      0.0    132.3       32    222.9    222.9       77     0.000     0.000     0.000     0.000       93        0        0        0        0       27       19    11.338       46     23.7    2.687   -9.900     0.78    0.000    0.000       30        8     2085  Maize_Improved_Cahul_10May_Optimal_85_MOHC.PRM
 Tot(106)       10        5     2086     45.5    735.4   1862.3   810.00      0.0     45.5      0.0      0.0      0.0     74.6       20    234.7    234.7       77     0.000     0.000     0.000     0.000       99        0        0        0        1       19       19    13.246       53      1.8    0.242   -9.900     0.08    0.000    0.000       30        8     2086  Maize_Improved_Cahul_10May_Optimal_85_MOHC.PRM
 Tot(107)       10        5     2087     35.9    846.5   1930.2   818.00      0.0     35.9      0.0      0.0      0.0     76.1       14    204.6    204.6       75     0.000     0.000     0.000     0.000       91        0        0        0        0       32       19     9.376       38      4.5    0.422   -9.900     0.16    0.000    0.000       30        8     2087  Maize_Improved_Cahul_10May_Optimal_85_MOHC.PRM
 Tot(108)       10        5     2088     36.8    856.1   1916.4   827.00      0.0     36.4      0.4      0.0      0.0     68.1       12    196.7    196.7       76     0.000     0.000     0.000     0.000       90        0        0        0        0       35       18     8.589       35      3.6    0.306   -9.900     0.12    0.000    0.000       30        8     2088  Maize_Improved_Cahul_10May_Optimal_85_MOHC.PRM
 Tot(109)       10        5     2089     31.2    831.7   1927.6   836.00      0.0     31.2      0.0      0.0      0.0     68.1       14    214.2    214.2       75     0.000     0.000     0.000     0.000       91        0        0        0        1       28       19    10.026       41     -9.9    0.000   -9.900     0.00    0.000    0.000       30        8     2089  Maize_Improved_Cahul_10May_Optimal_85_MOHC.PRM
 Tot(110)       10        5     2090     94.4    710.7   1796.3   845.00      0.0     90.4      4.0      5.7      0.0     96.0       33    257.4    257.4       75     0.000     0.000     0.000     0.000       99        0        0        0        2       13       20    13.858       56     25.5    3.528   -9.900     1.00    0.000    0.000       30        8     2090  Maize_Improved_Cahul_10May_Optimal_85_MOHC.PRM
 Tot(111)       10        5     2091     49.4    841.8   1922.8   854.00      0.0     48.8      0.6      0.0      0.0     78.1       17    222.1    222.1       73     0.000     0.000     0.000     0.000       90        0        0        0        0       27       20    10.182       41      3.7    0.374   -9.900     0.13    0.000    0.000       30        8     2091  Maize_Improved_Cahul_10May_Optimal_85_MOHC.PRM
 Tot(112)       10        5     2092     52.1    821.8   1874.7   863.00      0.0     47.8      4.3     17.7      0.0     64.1       14    216.0    216.0       75     0.000     0.000     0.000     0.000       92        0        0        0        2       29       19    10.307       42      8.9    0.912   -9.900     0.33    0.000    0.000       30        8     2092  Maize_Improved_Cahul_10May_Optimal_85_MOHC.PRM
 Tot(113)       10        5     2093     72.8    836.3   1925.8   872.00      0.0     72.2      0.6      0.0      0.0    105.3       24    224.2    224.2       72     0.000     0.000     0.000     0.000       92        0        0        0        0       24       20    10.992       45      0.1    0.006   -9.900     0.00    0.000    0.000       30        8     2093  Maize_Improved_Cahul_10May_Optimal_85_MOHC.PRM
 Tot(114)       10        5     2094     12.2    837.2   1955.0   881.00      0.0     12.2      0.0      0.0      0.0     54.0       10    202.7    202.7       78     0.000     0.000     0.000     0.000       92        0        0        0        0       33       18     9.331       38     14.4    1.346   -9.900     0.53    0.000    0.000       30        8     2094  Maize_Improved_Cahul_10May_Optimal_85_MOHC.PRM
 Tot(115)       10        5     2095     21.1    833.5   1931.8   890.00      0.0     21.1      0.0      0.0      0.0     61.6       13    210.7    210.7       74     0.000     0.000     0.000     0.000       92        0        0        0        0       28       19    10.143       42     -9.9    0.000   -9.900     0.00    0.000    0.000       30        8     2095  Maize_Improved_Cahul_10May_Optimal_85_MOHC.PRM
 Tot(116)       10        5     2096     97.8    785.9   1910.4   899.00      0.0     92.1      5.7     10.0      0.0    114.3       28    224.4    224.4       76     0.000     0.000     0.000     0.000       95        0        0        0        1       25       19    11.682       48     31.8    3.720   -9.900     1.10    0.000    0.000       30        8     2096  Maize_Improved_Cahul_10May_Optimal_85_MOHC.PRM
 Tot(117)       10        5     2097    141.3    744.3   1859.3   908.00      0.0    104.1     37.2     35.8      0.0    100.7       27    223.1    223.1       76     0.000     0.000     0.000     0.000       95        0        0        0        1       24       19    11.648       48      8.1    0.938   -9.900     0.29    0.000    0.000       30        8     2097  Maize_Improved_Cahul_10May_Optimal_85_MOHC.PRM
 Tot(118)       10        5     2098     45.2    776.4   1897.8   917.00      0.0     45.1      0.1      0.0      0.0     79.3       20    222.3    222.3       74     0.000     0.000     0.000     0.000       93        0        0        0        2       23       19    11.383       47      7.3    0.833   -9.900     0.28    0.000    0.000       30        8     2098  Maize_Improved_Cahul_10May_Optimal_85_MOHC.PRM
 Tot(119)       10        5     2099    114.9    678.5   1825.4   927.00      0.0    112.2      2.7      0.0      0.0     85.5       34    302.1    301.5       82     0.000     0.000     0.000     0.000      107        0        0        0        1        7       13    18.443       76     39.6    7.310   -9.900     1.89    0.000    0.000       30        8     2099  Maize_Improved_Cahul_10May_Optimal_85_MOHC.PRM
