AquaCrop 7.0 (August 2022) - Output created on (date) : 26-06-2023   at (time) : 11:09:53

    RunNr     Day1   Month1    Year1     Rain      ETo       GD     CO2      Irri   Infilt   Runoff    Drain   Upflow        E     E/Ex       Tr      TrW   Tr/Trx    SaltIn   SaltOut    SaltUp  SaltProf     Cycle   SaltStr  FertStr  WeedStr  TempStr   ExpStr   StoStr  BioMass  Brelative   HI    Y(dry)  Y(fresh)    WPet      Bin     Bout     DayN   MonthN    YearN
                                           mm       mm  degC.day    ppm        mm       mm       mm       mm       mm       mm        %       mm       mm        %    ton/ha    ton/ha    ton/ha    ton/ha      days       %        %        %        %        %        %    ton/ha        %       %    ton/ha   ton/ha    kg/m3   ton/ha   ton/ha
   Tot(1)       10        5     1981    146.8    507.3   1246.2   340.11      0.0    146.0      0.8      0.6      0.0     87.3       40    264.0    262.7       89     0.000     0.000     0.000     0.000      107        0        0        0       10        5        7    18.102       83     39.7    7.190   -9.900     2.05    0.000    0.000       30        8     1981  Maize_Standard_Cahul_10May_Optimal_85_MOHC.PRM
   Tot(2)       10        5     1982    232.4    490.7   1271.5   341.22      0.0    231.7      0.7      0.0      0.0    108.4       49    283.2    282.4      100     0.000     0.000     0.000     0.000      107        0        0        0        6        3        0    21.318       95     40.0    8.532   -9.900     2.18    0.000    0.000       30        8     1982  Maize_Standard_Cahul_10May_Optimal_85_MOHC.PRM
   Tot(3)       10        5     1983    291.5    495.5   1304.3   342.84      0.0    266.0     25.5     27.9      0.0    106.3       49    289.8    289.9      100     0.000     0.000     0.000     0.000      107        0        0        0        6        3        0    21.460       96     40.1    8.602   -9.900     2.17    0.000    0.000       30        8     1983  Maize_Standard_Cahul_10May_Optimal_85_MOHC.PRM
   Tot(4)       10        5     1984    204.1    468.4   1129.3   344.40      0.0    199.7      4.4     10.1      0.0    129.7       68    261.6    262.2       97     0.000     0.000     0.000     0.000      107        0        0        0       12        2        3    19.707       93     40.1    7.898   -9.900     2.02    0.000    0.000       30        8     1984  Maize_Standard_Cahul_10May_Optimal_85_MOHC.PRM
   Tot(5)       10        5     1985    291.0    486.1   1240.6   345.87      0.0    263.9     27.1     43.7      0.0    120.5       60    283.4    282.7       99     0.000     0.000     0.000     0.000      107        0        0        0        9        1        1    20.764       96     40.0    8.306   -9.900     2.06    0.000    0.000       30        8     1985  Maize_Standard_Cahul_10May_Optimal_85_MOHC.PRM
   Tot(6)       10        5     1986    174.4    542.4   1329.9   347.19      0.0    173.4      1.0      0.0      0.0    112.4       48    260.4    260.4       84     0.000     0.000     0.000     0.000      107        0        0        0        5        7       12    17.468       78     39.5    6.899   -9.900     1.85    0.000    0.000       30        8     1986  Maize_Standard_Cahul_10May_Optimal_85_MOHC.PRM
   Tot(7)       10        5     1987    239.8    498.8   1219.8   348.98      0.0    231.7      8.1      0.0      0.0     99.8       51    307.4    307.6      100     0.000     0.000     0.000     0.000      107        0        0        0       12        4        0    21.039       95     40.1    8.431   -9.900     2.07    0.000    0.000       30        8     1987  Maize_Standard_Cahul_10May_Optimal_85_MOHC.PRM
   Tot(8)       10        5     1988    149.3    506.3   1314.4   351.45      0.0    147.7      1.6      4.3      0.0    135.3       65    229.6    231.6       80     0.000     0.000     0.000     0.000      106        0        0        0        6        9       19    14.949       65     39.1    5.847   -9.900     1.60    0.000    0.000       30        8     1988  Maize_Standard_Cahul_10May_Optimal_85_MOHC.PRM
   Tot(9)       10        5     1989    210.2    497.8   1242.2   352.89      0.0    209.8      0.4      0.0      0.0    104.9       52    296.0    295.1       96     0.000     0.000     0.000     0.000      107        0        0        0       13        5        3    20.814       92     40.2    8.361   -9.900     2.09    0.000    0.000       30        8     1989  Maize_Standard_Cahul_10May_Optimal_85_MOHC.PRM
  Tot(10)       10        5     1990    134.5    533.2   1221.9   354.16      0.0    134.2      0.3      0.0      0.0    125.0       53    229.3    230.0       79     0.000     0.000     0.000     0.000      107        0        0        0       13       14       19    14.844       65     39.7    5.899   -9.900     1.66    0.000    0.000       30        8     1990  Maize_Standard_Cahul_10May_Optimal_85_MOHC.PRM
  Tot(11)       10        5     1991    366.2    440.5   1237.7   355.48      0.0    323.8     42.4     60.6      0.0    117.6       74    294.6    292.7      100     0.000     0.000     0.000     0.000      107        0        0        0       14        0        0    22.523       98     40.0    9.015   -9.900     2.19    0.000    0.000       30        8     1991  Maize_Standard_Cahul_10May_Optimal_85_MOHC.PRM
  Tot(12)       10        5     1992    169.4    527.1   1280.4   356.27      0.0    168.9      0.5      0.0      0.0    131.2       66    258.3    259.7       79     0.000     0.000     0.000     0.000      107        0        0        0       13        7       16    16.757       73     39.2    6.568   -9.900     1.69    0.000    0.000       30        8     1992  Maize_Standard_Cahul_10May_Optimal_85_MOHC.PRM
  Tot(13)       10        5     1993    217.3    512.9   1209.9   356.95      0.0    204.6     12.7     26.5      0.0    127.5       62    261.5    261.9       86     0.000     0.000     0.000     0.000      107        0        0        0       10        5       10    17.461       81     39.6    6.909   -9.900     1.78    0.000    0.000       30        8     1993  Maize_Standard_Cahul_10May_Optimal_85_MOHC.PRM
  Tot(14)       10        5     1994    230.6    531.5   1344.3   358.63      0.0    214.7     15.9     36.1      0.0    102.3       42    266.9    265.3       87     0.000     0.000     0.000     0.000      107        0        0        0        8       11        9    17.690       76     39.7    7.023   -9.900     1.90    0.000    0.000       30        8     1994  Maize_Standard_Cahul_10May_Optimal_85_MOHC.PRM
  Tot(15)       10        5     1995    166.2    526.5   1355.9   360.62      0.0    161.8      4.4      6.3      0.0    104.4       46    262.7    263.9       85     0.000     0.000     0.000     0.000      107        0        0        0        6       10       13    17.278       74     39.6    6.842   -9.900     1.86    0.000    0.000       30        8     1995  Maize_Standard_Cahul_10May_Optimal_85_MOHC.PRM
  Tot(16)       10        5     1996    151.7    560.7   1318.1   362.37      0.0    142.3      9.4      0.0      0.0    122.4       38    183.8    184.1       79     0.000     0.000     0.000     0.000      107        0        0        0        7       26       15    11.188       49     40.1    4.491   -9.900     1.47    0.000    0.000       30        8     1996  Maize_Standard_Cahul_10May_Optimal_85_MOHC.PRM
  Tot(17)       10        5     1997    425.5    464.4   1256.1   363.47      0.0    381.0     44.5      1.2      0.0    127.4       65    282.1    280.8      100     0.000     0.000     0.000     0.000      107        0        0        0       10        1        0    22.374       97     40.0    8.953   -9.900     2.19    0.000    0.000       30        8     1997  Maize_Standard_Cahul_10May_Optimal_85_MOHC.PRM
  Tot(18)       10        5     1998    211.3    512.8   1294.4   366.50      0.0    207.5      3.8      4.1      0.0    125.8       64    263.6    264.7       83     0.000     0.000     0.000     0.000      107        0        0        0       11        4       14    17.284       76     39.3    6.787   -9.900     1.74    0.000    0.000       30        8     1998  Maize_Standard_Cahul_10May_Optimal_85_MOHC.PRM
  Tot(19)       10        5     1999    300.7    547.1   1408.0   368.14      0.0    285.4     15.3      0.0      0.0    117.5       52    335.4    333.7       99     0.000     0.000     0.000     0.000      107        0        0        0        6        4        1    22.165       94     40.1    8.886   -9.900     1.96    0.000    0.000       30        8     1999  Maize_Standard_Cahul_10May_Optimal_85_MOHC.PRM
  Tot(20)       10        5     2000     73.7    615.7   1340.3   369.41      0.0     73.7      0.0      0.0      0.0     84.0       24    206.0    208.3       78     0.000     0.000     0.000     0.000      103        0        0        0        6       24       19    12.360       54     39.4    4.873   -9.900     1.69    0.000    0.000       30        8     2000  Maize_Standard_Cahul_10May_Optimal_85_MOHC.PRM
  Tot(21)       10        5     2001    197.2    553.7   1323.0   371.07      0.0    168.5     28.7     19.5      0.0    117.5       51    253.9    253.9       80     0.000     0.000     0.000     0.000      107        0        0        0        8        4       19    16.150       69     38.9    6.288   -9.900     1.69    0.000    0.000       30        8     2001  Maize_Standard_Cahul_10May_Optimal_85_MOHC.PRM
  Tot(22)       10        5     2002    295.7    563.3   1406.9   373.16      0.0    258.2     37.5      0.0      0.0    117.1       43    290.9    288.2       93     0.000     0.000     0.000     0.000      107        0        0        0        5       24        3    19.130       80     40.6    7.772   -9.900     1.90    0.000    0.000       30        8     2002  Maize_Standard_Cahul_10May_Optimal_85_MOHC.PRM
  Tot(23)       10        5     2003    102.9    601.8   1428.1   375.80      0.0    102.9      0.0      0.0      0.0    102.3       30    219.6    222.2       83     0.000     0.000     0.000     0.000      107        0        0        0        3       24       16    14.206       60     39.8    5.648   -9.900     1.75    0.000    0.000       30        8     2003  Maize_Standard_Cahul_10May_Optimal_85_MOHC.PRM
  Tot(24)       10        5     2004    274.3    515.6   1240.7   377.49      0.0    268.6      5.7      2.4      0.0    134.9       63    303.6    300.7       96     0.000     0.000     0.000     0.000      107        0        0        0       11       12        3    20.886       89     40.1    8.371   -9.900     1.91    0.000    0.000       30        8     2004  Maize_Standard_Cahul_10May_Optimal_85_MOHC.PRM
  Tot(25)       10        5     2005    357.3    523.6   1316.6   379.80      0.0    344.1     13.2      4.4      0.0    141.7       67    327.0    326.7      100     0.000     0.000     0.000     0.000      107        0        0        0        7        3        0    22.816       96     40.0    9.134   -9.900     1.95    0.000    0.000       30        8     2005  Maize_Standard_Cahul_10May_Optimal_85_MOHC.PRM
  Tot(26)       10        5     2006    170.7    575.9   1338.1   381.90      0.0    162.8      7.9     12.6      0.0    120.1       44    227.5    230.1       77     0.000     0.000     0.000     0.000      107        0        0        0        7       20       17    13.994       59     39.8    5.572   -9.900     1.60    0.000    0.000       30        8     2006  Maize_Standard_Cahul_10May_Optimal_85_MOHC.PRM
  Tot(27)       10        5     2007    117.6    680.9   1520.4   383.77      0.0    116.4      1.2      0.0      0.0    111.6       28    211.6    211.7       74     0.000     0.000     0.000     0.000      107        0        0        0        1       28       20    11.118       46     39.8    4.427   -9.900     1.37    0.000    0.000       30        8     2007  Maize_Standard_Cahul_10May_Optimal_85_MOHC.PRM
  Tot(28)       10        5     2008    142.7    609.1   1384.2   385.59      0.0    142.7      0.0      0.0      0.0    108.3       37    245.8    246.0       77     0.000     0.000     0.000     0.000      107        0        0        0        4       20       20    14.555       61     39.3    5.724   -9.900     1.62    0.000    0.000       30        8     2008  Maize_Standard_Cahul_10May_Optimal_85_MOHC.PRM
  Tot(29)       10        5     2009    135.2    618.6   1416.0   387.37      0.0    134.6      0.6      0.0      0.0     93.0       31    262.3    262.5       82     0.000     0.000     0.000     0.000      107        0        0        0        3       11       18    15.434       64     39.3    6.069   -9.900     1.71    0.000    0.000       30        8     2009  Maize_Standard_Cahul_10May_Optimal_85_MOHC.PRM
  Tot(30)       10        5     2010    257.4    553.9   1446.3   389.85      0.0    240.0     17.4      3.4      0.0    127.9       57    317.9    317.1       93     0.000     0.000     0.000     0.000      107        0        0        0        7        2        6    20.943       89     39.9    8.351   -9.900     1.87    0.000    0.000       30        8     2010  Maize_Standard_Cahul_10May_Optimal_85_MOHC.PRM
  Tot(31)       10        5     2011    170.0    575.1   1394.0   391.63      0.0    165.7      4.3      2.2      0.0    119.0       49    268.7    268.9       80     0.000     0.000     0.000     0.000      107        0        0        0        4        6       15    17.366       74     39.5    6.860   -9.900     1.77    0.000    0.000       30        8     2011  Maize_Standard_Cahul_10May_Optimal_85_MOHC.PRM
  Tot(32)       10        5     2012    235.5    644.6   1476.6   393.82      0.0    228.5      7.0      8.0      0.0    164.6       56    260.6    259.8       75     0.000     0.000     0.000     0.000      107        0        0        0        5       18       19    14.390       60     39.3    5.650   -9.900     1.33    0.000    0.000       30        8     2012  Maize_Standard_Cahul_10May_Optimal_85_MOHC.PRM
  Tot(33)       10        5     2013    245.8    572.9   1442.3   396.48      0.0    233.1     12.7      0.0      0.0    127.3       53    300.6    300.1       87     0.000     0.000     0.000     0.000      107        0        0        0        3        5       10    19.417       80     39.4    7.649   -9.900     1.79    0.000    0.000       30        8     2013  Maize_Standard_Cahul_10May_Optimal_85_MOHC.PRM
  Tot(34)       10        5     2014    231.2    553.0   1388.0   398.55      0.0    226.5      4.7      7.4      0.0    144.9       67    291.8    292.9       85     0.000     0.000     0.000     0.000      107        0        0        0        4        8       11    18.972       79     39.8    7.548   -9.900     1.73    0.000    0.000       30        8     2014  Maize_Standard_Cahul_10May_Optimal_85_MOHC.PRM
  Tot(35)       10        5     2015    138.4    632.1   1420.5   402.00      0.0    136.9      1.5      0.0      0.0    101.6       33    247.4    247.7       78     0.000     0.000     0.000     0.000      107        0        0        0        4       12       15    14.685       61     39.4    5.790   -9.900     1.66    0.000    0.000       30        8     2015  Maize_Standard_Cahul_10May_Optimal_85_MOHC.PRM
  Tot(36)       10        5     2016    181.4    575.2   1403.1   404.00      0.0    180.6      0.8      0.8      0.0    153.4       64    243.7    243.8       75     0.000     0.000     0.000     0.000      107        0        0        0        8       12       22    14.578       60     39.3    5.736   -9.900     1.44    0.000    0.000       30        8     2016  Maize_Standard_Cahul_10May_Optimal_85_MOHC.PRM
  Tot(37)       10        5     2017    261.1    575.3   1379.0   407.00      0.0    232.5     28.6      1.2      0.0    102.8       45    338.3    337.9       93     0.000     0.000     0.000     0.000      107        0        0        0        6        5        6    21.260       88     40.0    8.514   -9.900     1.93    0.000    0.000       30        8     2017  Maize_Standard_Cahul_10May_Optimal_85_MOHC.PRM
  Tot(38)       10        5     2018    166.6    568.1   1494.6   410.00      0.0    161.0      5.6      0.0      0.0     89.0       33    288.0    287.7       90     0.000     0.000     0.000     0.000      107        0        0        0        2       10        7    20.116       83     40.0    8.045   -9.900     2.13    0.000    0.000       30        8     2018  Maize_Standard_Cahul_10May_Optimal_85_MOHC.PRM
  Tot(39)       10        5     2019    183.6    599.5   1473.9   413.00      0.0    182.0      1.6      1.9      0.0    159.2       60    246.7    247.7       75     0.000     0.000     0.000     0.000      107        0        0        0        2       15       20    15.354       63     39.1    6.010   -9.900     1.48    0.000    0.000       30        8     2019  Maize_Standard_Cahul_10May_Optimal_85_MOHC.PRM
  Tot(40)       10        5     2020     78.4    677.0   1540.3   416.00      0.0     78.1      0.3      0.0      0.0    103.4       25    178.0    178.2       74     0.000     0.000     0.000     0.000       88        0        0        0        4       31       20     9.306       38     24.8    2.308   -9.900     0.84    0.000    0.000       30        8     2020  Maize_Standard_Cahul_10May_Optimal_85_MOHC.PRM
  Tot(41)       10        5     2021     65.9    690.3   1525.2   419.00      0.0     62.7      3.2     11.7      0.0     86.0       19    161.6    161.6       74     0.000     0.000     0.000     0.000       86        0        0        0        6       33       20     8.116       33     22.8    1.854   -9.900     0.77    0.000    0.000       30        8     2021  Maize_Standard_Cahul_10May_Optimal_85_MOHC.PRM
  Tot(42)       10        5     2022     44.8    649.5   1454.5   422.00      0.0     44.7      0.1      0.0      0.0     67.8       18    188.4    188.4       74     0.000     0.000     0.000     0.000       92        0        0        0       10       27       20    10.567       43     28.6    3.018   -9.900     1.19    0.000    0.000       30        8     2022  Maize_Standard_Cahul_10May_Optimal_85_MOHC.PRM
  Tot(43)       10        5     2023     96.9    638.9   1444.0   425.00      0.0     96.9      0.0      0.0      0.0    107.5       32    191.7    191.7       72     0.000     0.000     0.000     0.000       93        0        0        0        8       21       21    10.786       45     29.4    3.169   -9.900     1.10    0.000    0.000       30        8     2023  Maize_Standard_Cahul_10May_Optimal_85_MOHC.PRM
  Tot(44)       10        5     2024     86.3    637.2   1496.7   428.00      0.0     83.4      2.9      9.6      0.0    104.9       29    176.3    176.3       72     0.000     0.000     0.000     0.000       90        0        0        0        6       27       21    10.247       41     26.4    2.708   -9.900     0.97    0.000    0.000       30        8     2024  Maize_Standard_Cahul_10May_Optimal_85_MOHC.PRM
  Tot(45)       10        5     2025    172.3    632.0   1526.0   431.00      0.0    168.1      4.2      6.2      0.0    144.4       51    236.2    235.9       71     0.000     0.000     0.000     0.000      107        0        0        0        2       12       25    13.650       55     23.6    3.223   -9.900     0.85    0.000    0.000       30        8     2025  Maize_Standard_Cahul_10May_Optimal_85_MOHC.PRM
  Tot(46)       10        5     2026    100.6    630.3   1499.5   435.00      0.0     96.6      4.0      3.3      0.0    118.2       34    181.2    181.4       73     0.000     0.000     0.000     0.000       91        0        0        0        5       26       21    10.708       43     27.4    2.939   -9.900     1.01    0.000    0.000       30        8     2026  Maize_Standard_Cahul_10May_Optimal_85_MOHC.PRM
  Tot(47)       10        5     2027    149.6    591.5   1496.8   438.00      0.0    143.4      6.2     17.7      0.0    101.4       38    241.3    241.2       77     0.000     0.000     0.000     0.000      107        0        0        0        2       25       19    14.902       60     39.8    5.931   -9.900     1.73    0.000    0.000       30        8     2027  Maize_Standard_Cahul_10May_Optimal_85_MOHC.PRM
  Tot(48)       10        5     2028     83.8    668.9   1502.6   442.00      0.0     83.8      0.0      0.0      0.0    107.8       31    186.9    187.1       70     0.000     0.000     0.000     0.000       89        0        0        0        9       22       22    10.338       42     25.3    2.613   -9.900     0.90    0.000    0.000       30        8     2028  Maize_Standard_Cahul_10May_Optimal_85_MOHC.PRM
  Tot(49)       10        5     2029    155.7    596.5   1518.6   445.00      0.0    152.3      3.4      0.9      0.0    128.0       53    249.4    249.2       73     0.000     0.000     0.000     0.000      107        0        0        0        3       13       23    15.108       61     39.0    5.893   -9.900     1.56    0.000    0.000       30        8     2029  Maize_Standard_Cahul_10May_Optimal_85_MOHC.PRM
  Tot(50)       10        5     2030    218.5    571.9   1405.0   449.00      0.0    192.2     26.3     32.1      0.0    141.2       65    242.4    242.3       72     0.000     0.000     0.000     0.000      107        0        0        0        8       15       23    15.033       61     39.2    5.899   -9.900     1.54    0.000    0.000       30        8     2030  Maize_Standard_Cahul_10May_Optimal_85_MOHC.PRM
  Tot(51)       10        5     2031    128.2    648.5   1590.7   452.00      0.0    118.1     10.1     24.5      0.0    115.3       30    182.5    182.7       77     0.000     0.000     0.000     0.000       91        0        0        0        4       31       19    10.069       40     28.0    2.815   -9.900     0.97    0.000    0.000       30        8     2031  Maize_Standard_Cahul_10May_Optimal_85_MOHC.PRM
  Tot(52)       10        5     2032    207.5    563.2   1438.5   456.00      0.0    196.9     10.6     25.7      0.0    131.1       48    217.5    216.3       78     0.000     0.000     0.000     0.000      107        0        0        0        7       27       14    13.476       55     40.2    5.414   -9.900     1.55    0.000    0.000       30        8     2032  Maize_Standard_Cahul_10May_Optimal_85_MOHC.PRM
  Tot(53)       10        5     2033    160.6    643.6   1567.0   460.00      0.0    152.2      8.4     17.0      0.0    146.2       40    187.7    189.0       75     0.000     0.000     0.000     0.000       92        0        0        0        4       27       20    11.038       44     28.7    3.169   -9.900     0.99    0.000    0.000       30        8     2033  Maize_Standard_Cahul_10May_Optimal_85_MOHC.PRM
  Tot(54)       10        5     2034     92.4    731.0   1612.5   464.00      0.0     91.6      0.8      0.0      0.0    121.1       29    170.7    170.7       69     0.000     0.000     0.000     0.000       83        0        0        0        5       29       22     8.617       34     18.4    1.589   -9.900     0.55    0.000    0.000       30        8     2034  Maize_Standard_Cahul_10May_Optimal_85_MOHC.PRM
  Tot(55)       10        5     2035     87.4    640.9   1484.9   468.00      0.0     85.5      1.9      3.9      0.0    101.0       31    193.2    193.2       71     0.000     0.000     0.000     0.000       91        0        0        0        9       20       21    11.234       45     27.6    3.099   -9.900     1.06    0.000    0.000       30        8     2035  Maize_Standard_Cahul_10May_Optimal_85_MOHC.PRM
  Tot(56)       10        5     2036     46.2    710.3   1627.6   472.00      0.0     46.2      0.0      0.0      0.0     79.2       18    165.7    165.7       70     0.000     0.000     0.000     0.000       85        0        0        0        4       31       21     8.721       35     15.0    1.304   -9.900     0.54    0.000    0.000       30        8     2036  Maize_Standard_Cahul_10May_Optimal_85_MOHC.PRM
  Tot(57)       10        5     2037    205.9    565.7   1356.9   476.00      0.0    175.5     30.4     37.1      0.0    111.5       39    189.9    189.6       74     0.000     0.000     0.000     0.000      107        0        0        0       11       24       15    11.334       46     39.9    4.518   -9.900     1.50    0.000    0.000       30        8     2037  Maize_Standard_Cahul_10May_Optimal_85_MOHC.PRM
  Tot(58)       10        5     2038    126.8    618.3   1576.0   481.00      0.0    126.7      0.1      0.0      0.0    113.8       44    238.3    238.6       71     0.000     0.000     0.000     0.000      105        0        0        0        6       14       25    14.030       56     38.5    5.397   -9.900     1.53    0.000    0.000       30        8     2038  Maize_Standard_Cahul_10May_Optimal_85_MOHC.PRM
  Tot(59)       10        5     2039     84.7    706.8   1630.6   485.00      0.0     84.4      0.3      0.0      0.0    112.6       27    172.7    172.7       72     0.000     0.000     0.000     0.000       86        0        0        0        4       29       21     9.132       36     22.6    2.065   -9.900     0.74    0.000    0.000       30        8     2039  Maize_Standard_Cahul_10May_Optimal_85_MOHC.PRM
  Tot(60)       10        5     2040     26.7    734.5   1679.6   489.00      0.0     26.7      0.0      0.0      0.0     66.3       13    150.8    150.8       74     0.000     0.000     0.000     0.000       86        0        0        0        1       37       19     7.196       29     21.9    1.576   -9.900     0.73    0.000    0.000       30        8     2040  Maize_Standard_Cahul_10May_Optimal_85_MOHC.PRM
  Tot(61)       10        5     2041     79.3    768.5   1651.3   494.00      0.0     78.7      0.6      0.0      0.0    105.9       24    180.2    180.2       67     0.000     0.000     0.000     0.000       87        0        0        0        4       27       23     9.215       37     23.1    2.127   -9.900     0.75    0.000    0.000       30        8     2041  Maize_Standard_Cahul_10May_Optimal_85_MOHC.PRM
  Tot(62)       10        5     2042    205.6    627.5   1526.3   499.00      0.0    164.9     40.7     63.8      0.0    105.6       33    211.3    211.3       76     0.000     0.000     0.000     0.000       95        0        0        0        4       22       20    12.344       49     31.4    3.875   -9.900     1.23    0.000    0.000       30        8     2042  Maize_Standard_Cahul_10May_Optimal_85_MOHC.PRM
  Tot(63)       10        5     2043     11.9    844.4   1708.0   504.00      0.0     11.9      0.0      0.0      0.0     55.1        8    138.6    138.6       75     0.000     0.000     0.000     0.000       82        0        0        0        2       41       19     5.813       23      9.8    0.572   -9.900     0.31    0.000    0.000       30        8     2043  Maize_Standard_Cahul_10May_Optimal_85_MOHC.PRM
  Tot(64)       10        5     2044    104.4    637.2   1576.7   508.00      0.0    102.6      1.8      1.8      0.0    108.7       35    211.2    211.2       73     0.000     0.000     0.000     0.000       96        0        0        0        3       13       21    12.901       51     32.1    4.138   -9.900     1.30    0.000    0.000       30        8     2044  Maize_Standard_Cahul_10May_Optimal_85_MOHC.PRM
  Tot(65)       10        5     2045    181.2    619.0   1453.6   513.00      0.0    159.0     22.2     14.3      0.0    110.8       36    194.5    194.5       72     0.000     0.000     0.000     0.000       91        0        0        0        5       20       21    11.463       46     27.5    3.158   -9.900     1.11    0.000    0.000       30        8     2045  Maize_Standard_Cahul_10May_Optimal_85_MOHC.PRM
  Tot(66)       10        5     2046    162.6    627.8   1605.8   519.00      0.0    148.8     13.8     33.3      0.0    128.3       41    197.8    197.8       72     0.000     0.000     0.000     0.000       91        0        0        0        3       22       21    11.362       45     27.3    3.106   -9.900     0.97    0.000    0.000       30        8     2046  Maize_Standard_Cahul_10May_Optimal_85_MOHC.PRM
  Tot(67)       10        5     2047     71.5    754.2   1733.2   524.00      0.0     67.1      4.4      9.9      0.0     89.7       18    162.2    162.2       72     0.000     0.000     0.000     0.000       84        0        0        0        2       33       21     8.273       33     11.2    0.927   -9.900     0.37    0.000    0.000       30        8     2047  Maize_Standard_Cahul_10May_Optimal_85_MOHC.PRM
  Tot(68)       10        5     2048     82.9    659.3   1659.8   529.00      0.0     81.4      1.5      0.0      0.0    101.5       30    191.7    191.7       72     0.000     0.000     0.000     0.000       91        0        0        0        2       22       21    11.412       45     27.4    3.129   -9.900     1.08    0.000    0.000       30        8     2048  Maize_Standard_Cahul_10May_Optimal_85_MOHC.PRM
  Tot(69)       10        5     2049     65.9    729.3   1631.3   535.00      0.0     65.9      0.0      0.0      0.0     83.3       20    184.6    184.6       69     0.000     0.000     0.000     0.000       88        0        0        0        2       26       22     9.664       38     24.7    2.388   -9.900     0.92    0.000    0.000       30        8     2049  Maize_Standard_Cahul_10May_Optimal_85_MOHC.PRM
  Tot(70)       10        5     2050     95.2    667.1   1624.5   541.00      0.0     95.2      0.0      0.0      0.0    110.3       31    203.0    203.0       72     0.000     0.000     0.000     0.000      100        0        0        0        5       27       23    11.902       47     36.2    4.310   -9.900     1.38    0.000    0.000       30        8     2050  Maize_Standard_Cahul_10May_Optimal_85_MOHC.PRM
  Tot(71)       10        5     2051     52.2    640.7   1564.2   546.00      0.0     51.7      0.5      1.6      0.0     79.8       24    178.1    178.1       70     0.000     0.000     0.000     0.000       89        0        0        0        5       23       22    10.421       41     25.4    2.645   -9.900     1.04    0.000    0.000       30        8     2051  Maize_Standard_Cahul_10May_Optimal_85_MOHC.PRM
  Tot(72)       10        5     2052    107.5    688.5   1562.1   552.00      0.0    106.7      0.8      2.3      0.0    130.6       33    174.8    174.8       72     0.000     0.000     0.000     0.000       86        0        0        0        6       30       21     9.411       37     22.5    2.119   -9.900     0.71    0.000    0.000       30        8     2052  Maize_Standard_Cahul_10May_Optimal_85_MOHC.PRM
  Tot(73)       10        5     2053    110.9    664.8   1656.5   558.00      0.0    107.9      3.0      2.0      0.0    115.7       35    205.8    205.8       71     0.000     0.000     0.000     0.000       93        0        0        0        2       18       22    12.014       47     17.7    2.132   -9.900     0.68    0.000    0.000       30        8     2053  Maize_Standard_Cahul_10May_Optimal_85_MOHC.PRM
  Tot(74)       10        5     2054    125.2    664.7   1667.3   564.00      0.0    117.7      7.5     13.8      0.0    119.1       34    185.7    185.7       70     0.000     0.000     0.000     0.000       88        0        0        0        2       24       22    10.378       41     24.3    2.519   -9.900     0.87    0.000    0.000       30        8     2054  Maize_Standard_Cahul_10May_Optimal_85_MOHC.PRM
  Tot(75)       10        5     2055     83.2    674.1   1601.7   571.00      0.0     82.5      0.7      6.4      0.0     97.1       29    187.3    187.3       69     0.000     0.000     0.000     0.000       88        0        0        0        6       23       22    10.380       41     24.2    2.512   -9.900     0.89    0.000    0.000       30        8     2055  Maize_Standard_Cahul_10May_Optimal_85_MOHC.PRM
  Tot(76)       10        5     2056    139.8    627.4   1547.4   577.00      0.0    127.9     11.9      9.9      0.0     96.3       37    241.7    241.3       70     0.000     0.000     0.000     0.000      107        0        0        0        3        9       22    14.832       59     38.7    5.741   -9.900     1.70    0.000    0.000       30        8     2056  Maize_Standard_Cahul_10May_Optimal_85_MOHC.PRM
  Tot(77)       10        5     2057    172.5    621.4   1558.3   583.00      0.0    168.1      4.4      3.4      0.0    131.4       51    256.3    256.7       78     0.000     0.000     0.000     0.000      103        0        0        0        5        6       20    15.625       62     38.6    6.030   -9.900     1.56    0.000    0.000       30        8     2057  Maize_Standard_Cahul_10May_Optimal_85_MOHC.PRM
  Tot(78)       10        5     2058     83.0    746.9   1767.3   590.00      0.0     81.7      1.3      2.6      0.0    106.7       23    167.3    167.3       72     0.000     0.000     0.000     0.000       84        0        0        0        2       32       21     8.298       33     12.4    1.027   -9.900     0.38    0.000    0.000       30        8     2058  Maize_Standard_Cahul_10May_Optimal_85_MOHC.PRM
  Tot(79)       10        5     2059    124.9    627.1   1662.0   597.00      0.0    124.9      0.0      0.0      0.0    104.9       38    243.8    243.8       76     0.000     0.000     0.000     0.000      106        0        0        0        2       11       20    15.995       63     38.7    6.195   -9.900     1.78    0.000    0.000       30        8     2059  Maize_Standard_Cahul_10May_Optimal_85_MOHC.PRM
  Tot(80)       10        5     2060     60.4    824.7   1856.0   604.00      0.0     60.4      0.0      0.0      0.0     95.4       16    159.5    159.5       74     0.000     0.000     0.000     0.000       84        0        0        0        1       36       20     7.512       29     10.2    0.764   -9.900     0.30    0.000    0.000       30        8     2060  Maize_Standard_Cahul_10May_Optimal_85_MOHC.PRM
  Tot(81)       10        5     2061     55.3    697.3   1644.0   611.00      0.0     54.7      0.6      0.4      0.0     86.0       21    167.1    167.1       70     0.000     0.000     0.000     0.000       85        0        0        0        7       30       21     9.069       36     21.5    1.950   -9.900     0.78    0.000    0.000       30        8     2061  Maize_Standard_Cahul_10May_Optimal_85_MOHC.PRM
  Tot(82)       10        5     2062     74.4    732.5   1764.1   618.00      0.0     73.3      1.1      0.8      0.0     94.5       23    177.6    177.6       69     0.000     0.000     0.000     0.000       87        0        0        0        1       27       22     9.627       38     23.3    2.242   -9.900     0.88    0.000    0.000       30        8     2062  Maize_Standard_Cahul_10May_Optimal_85_MOHC.PRM
  Tot(83)       10        5     2063     51.8    663.4   1703.7   625.00      0.0     51.8      0.0      0.0      0.0     77.4       23    188.7    188.7       71     0.000     0.000     0.000     0.000       93        0        0        0        1       21       21    11.496       45     29.3    3.363   -9.900     1.28    0.000    0.000       30        8     2063  Maize_Standard_Cahul_10May_Optimal_85_MOHC.PRM
  Tot(84)       10        5     2064     51.5    743.8   1826.6   632.00      0.0     51.5      0.0      0.0      0.0     86.8       18    161.4    161.4       74     0.000     0.000     0.000     0.000       86        0        0        0        2       33       20     8.455       33     22.8    1.926   -9.900     0.81    0.000    0.000       30        8     2064  Maize_Standard_Cahul_10May_Optimal_85_MOHC.PRM
  Tot(85)       10        5     2065     41.8    644.1   1656.4   639.00      0.0     41.8      0.0      0.0      0.0     78.0       21    167.0    167.0       74     0.000     0.000     0.000     0.000       90        0        0        0        1       30       20    10.224       40     26.7    2.734   -9.900     1.18    0.000    0.000       30        8     2065  Maize_Standard_Cahul_10May_Optimal_85_MOHC.PRM
  Tot(86)       10        5     2066     22.0    744.6   1776.3   647.00      0.0     22.0      0.0      0.0      0.0     62.0       12    157.1    157.1       74     0.000     0.000     0.000     0.000       87        0        0        0        0       35       19     8.347       33     23.7    1.982   -9.900     0.94    0.000    0.000       30        8     2066  Maize_Standard_Cahul_10May_Optimal_85_MOHC.PRM
  Tot(87)       10        5     2067     81.0    760.4   1837.2   654.00      0.0     80.6      0.4      0.0      0.0    102.0       24    184.4    184.4       69     0.000     0.000     0.000     0.000       87        0        0        0        0       27       22     9.578       38     23.3    2.228   -9.900     0.80    0.000    0.000       30        8     2067  Maize_Standard_Cahul_10May_Optimal_85_MOHC.PRM
  Tot(88)       10        5     2068    145.3    663.8   1714.7   662.00      0.0    143.5      1.8      1.8      0.0    130.0       45    238.4    238.4       72     0.000     0.000     0.000     0.000      105        0        0        0        0       14       23    14.904       59     38.1    5.684   -9.900     1.54    0.000    0.000       30        8     2068  Maize_Standard_Cahul_10May_Optimal_85_MOHC.PRM
  Tot(89)       10        5     2069    138.1    660.8   1745.7   669.00      0.0    127.1     11.0      6.1      0.0     93.6       33    250.6    250.6       76     0.000     0.000     0.000     0.000      103        0        0        0        1        7       20    15.203       60     38.4    5.845   -9.900     1.70    0.000    0.000       30        8     2069  Maize_Standard_Cahul_10May_Optimal_85_MOHC.PRM
  Tot(90)       10        5     2070     83.9    750.1   1777.4   677.00      0.0     73.1     10.8     23.2      0.0     83.2       18    166.9    166.9       70     0.000     0.000     0.000     0.000       86        0        0        0        3       30       21     9.261       36     22.5    2.086   -9.900     0.85    0.000    0.000       30        8     2070  Maize_Standard_Cahul_10May_Optimal_85_MOHC.PRM
  Tot(91)       10        5     2071     20.8    795.4   1813.5   685.00      0.0     20.8      0.0      0.0      0.0     62.2       11    151.1    151.1       72     0.000     0.000     0.000     0.000       84        0        0        0        1       36       20     7.380       29     -9.9    0.000   -9.900     0.00    0.000    0.000       30        8     2071  Maize_Standard_Cahul_10May_Optimal_85_MOHC.PRM
  Tot(92)       10        5     2072     96.9    743.2   1803.8   693.00      0.0     93.9      3.0      5.9      0.0    114.3       28    178.8    178.8       70     0.000     0.000     0.000     0.000       87        0        0        0        2       26       22     9.961       39     23.4    2.326   -9.900     0.80    0.000    0.000       30        8     2072  Maize_Standard_Cahul_10May_Optimal_85_MOHC.PRM
  Tot(93)       10        5     2073     98.2    703.7   1719.2   701.00      0.0     96.2      2.0      0.0      0.0     90.9       27    225.5    225.5       73     0.000     0.000     0.000     0.000       97        0        0        0        1       13       21    13.237       52     33.0    4.371   -9.900     1.39    0.000    0.000       30        8     2073  Maize_Standard_Cahul_10May_Optimal_85_MOHC.PRM
  Tot(94)       10        5     2074     65.2    765.1   1776.4   709.00      0.0     63.8      1.4      4.4      0.0     95.3       19    159.0    159.0       72     0.000     0.000     0.000     0.000       84        0        0        0        2       33       20     8.321       33     16.1    1.339   -9.900     0.54    0.000    0.000       30        8     2074  Maize_Standard_Cahul_10May_Optimal_85_MOHC.PRM
  Tot(95)       10        5     2075     52.9    764.7   1845.9   717.00      0.0     48.4      4.5      8.5      0.0     79.8       15    154.4    154.4       74     0.000     0.000     0.000     0.000       86        0        0        0        0       36       19     7.765       31     21.3    1.656   -9.900     0.71    0.000    0.000       30        8     2075  Maize_Standard_Cahul_10May_Optimal_85_MOHC.PRM
  Tot(96)       10        5     2076     98.3    715.8   1712.3   725.00      0.0     91.0      7.3     21.9      0.0     95.4       24    180.3    180.3       73     0.000     0.000     0.000     0.000       88        0        0        0        8       29       21    10.007       40      9.4    0.940   -9.900     0.35    0.000    0.000       30        8     2076  Maize_Standard_Cahul_10May_Optimal_85_MOHC.PRM
  Tot(97)       10        5     2077     61.1    700.4   1744.3   733.00      0.0     60.8      0.3      0.0      0.0     80.6       20    175.0    175.0       71     0.000     0.000     0.000     0.000       91        0        0        0        1       27       21    10.246       41     27.4    2.813   -9.900     1.16    0.000    0.000       30        8     2077  Maize_Standard_Cahul_10May_Optimal_85_MOHC.PRM
  Tot(98)       10        5     2078    104.5    652.0   1753.0   742.00      0.0    104.5      0.0      0.0      0.0    114.6       34    195.9    195.9       75     0.000     0.000     0.000     0.000       96        0        0        0        3       22       20    12.587       50     32.6    4.108   -9.900     1.42    0.000    0.000       30        8     2078  Maize_Standard_Cahul_10May_Optimal_85_MOHC.PRM
  Tot(99)       10        5     2079     65.4    728.1   1809.8   750.00      0.0     64.4      1.0      0.2      0.0     95.9       22    163.4    163.4       69     0.000     0.000     0.000     0.000       84        0        0        0        2       30       21     8.473       34     10.7    0.910   -9.900     0.35    0.000    0.000       30        8     2079  Maize_Standard_Cahul_10May_Optimal_85_MOHC.PRM
 Tot(100)       10        5     2080    123.0    765.7   1872.2   758.00      0.0    121.1      1.9      5.0      0.0    135.2       29    173.1    173.1       72     0.000     0.000     0.000     0.000       89        0        0        0        1       32       21     8.394       33      2.5    0.210   -9.900     0.07    0.000    0.000       30        8     2080  Maize_Standard_Cahul_10May_Optimal_85_MOHC.PRM
 Tot(101)       10        5     2081     90.8    736.2   1909.2   767.00      0.0     90.5      0.3      0.0      0.0    108.3       25    192.1    192.1       74     0.000     0.000     0.000     0.000       91        0        0        0        0       27       20    10.468       42     27.5    2.882   -9.900     0.97    0.000    0.000       30        8     2081  Maize_Standard_Cahul_10May_Optimal_85_MOHC.PRM
 Tot(102)       10        5     2082     68.7    770.7   1911.7   775.00      0.0     56.4     12.3     24.1      0.0     67.3       14    167.0    167.0       72     0.000     0.000     0.000     0.000       87        0        0        0        0       32       21     8.958       36     23.6    2.114   -9.900     0.92    0.000    0.000       30        8     2082  Maize_Standard_Cahul_10May_Optimal_85_MOHC.PRM
 Tot(103)       10        5     2083    105.7    785.2   1825.0   784.00      0.0     95.0     10.7     13.2      0.0    113.7       25    167.3    167.3       67     0.000     0.000     0.000     0.000       85        0        0        0        2       29       22     8.854       35     16.3    1.446   -9.900     0.52    0.000    0.000       30        8     2083  Maize_Standard_Cahul_10May_Optimal_85_MOHC.PRM
 Tot(104)       10        5     2084    323.1    594.1   1632.2   792.00      0.0    204.6    118.5    137.1      0.0     72.8       30    209.2    209.2       75     0.000     0.000     0.000     0.000       96        0        0        0        8       16       24    13.032       52     32.3    4.216   -9.900     1.51    0.000    0.000       30        8     2084  Maize_Standard_Cahul_10May_Optimal_85_MOHC.PRM
 Tot(105)       10        5     2085    105.1    770.4   1921.8   801.00      0.0    103.7      1.4      3.2      0.0    134.5       28    160.2    160.2       73     0.000     0.000     0.000     0.000       84        0        0        0        0       33       20     8.279       33     21.2    1.759   -9.900     0.63    0.000    0.000       30        8     2085  Maize_Standard_Cahul_10May_Optimal_85_MOHC.PRM
 Tot(106)       10        5     2086     45.5    735.4   1862.3   810.00      0.0     45.5      0.0      0.0      0.0     76.6       18    174.2    174.2       72     0.000     0.000     0.000     0.000       90        0        0        0        1       27       20    10.076       41      1.7    0.172   -9.900     0.07    0.000    0.000       30        8     2086  Maize_Standard_Cahul_10May_Optimal_85_MOHC.PRM
 Tot(107)       10        5     2087     35.9    846.5   1930.2   818.00      0.0     35.9      0.0      0.0      0.0     77.7       13    147.0    147.0       72     0.000     0.000     0.000     0.000       85        0        0        0        0       38       19     6.812       27      4.5    0.305   -9.900     0.14    0.000    0.000       30        8     2087  Maize_Standard_Cahul_10May_Optimal_85_MOHC.PRM
 Tot(108)       10        5     2088     36.8    856.1   1916.4   827.00      0.0     36.4      0.4      0.0      0.0     70.1       11    139.2    139.2       75     0.000     0.000     0.000     0.000       86        0        0        0        0       41       18     6.089       25      3.5    0.215   -9.900     0.11    0.000    0.000       30        8     2088  Maize_Standard_Cahul_10May_Optimal_85_MOHC.PRM
 Tot(109)       10        5     2089     31.2    831.7   1927.6   836.00      0.0     31.2      0.0      0.0      0.0     70.4       12    155.5    155.5       72     0.000     0.000     0.000     0.000       84        0        0        0        1       35       20     7.393       30     -9.9    0.000   -9.900     0.00    0.000    0.000       30        8     2089  Maize_Standard_Cahul_10May_Optimal_85_MOHC.PRM
 Tot(110)       10        5     2090     94.4    710.7   1796.3   845.00      0.0     90.4      4.0      5.7      0.0     97.8       29    198.2    198.2       70     0.000     0.000     0.000     0.000       91        0        0        0        2       20       22    11.074       45     24.6    2.722   -9.900     0.93    0.000    0.000       30        8     2090  Maize_Standard_Cahul_10May_Optimal_85_MOHC.PRM
 Tot(111)       10        5     2091     49.4    841.8   1922.8   854.00      0.0     48.8      0.6      0.0      0.0     80.4       15    164.3    164.3       69     0.000     0.000     0.000     0.000       83        0        0        0        0       33       22     7.706       31      3.6    0.278   -9.900     0.12    0.000    0.000       30        8     2091  Maize_Standard_Cahul_10May_Optimal_85_MOHC.PRM
 Tot(112)       10        5     2092     52.1    821.8   1874.7   863.00      0.0     47.8      4.3     17.7      0.0     65.8       12    155.6    155.6       73     0.000     0.000     0.000     0.000       84        0        0        0        2       35       20     7.560       31      8.7    0.655   -9.900     0.30    0.000    0.000       30        8     2092  Maize_Standard_Cahul_10May_Optimal_85_MOHC.PRM
 Tot(113)       10        5     2093     72.8    836.3   1925.8   872.00      0.0     72.2      0.6      0.0      0.0    106.7       21    166.4    166.4       68     0.000     0.000     0.000     0.000       86        0        0        0        0       31       22     8.461       35      0.1    0.005   -9.900     0.00    0.000    0.000       30        8     2093  Maize_Standard_Cahul_10May_Optimal_85_MOHC.PRM
 Tot(114)       10        5     2094     12.2    837.2   1955.0   881.00      0.0     12.2      0.0      0.0      0.0     55.3        9    144.2    144.2       76     0.000     0.000     0.000     0.000       87        0        0        0        0       40       18     6.658       27     14.4    0.959   -9.900     0.49    0.000    0.000       30        8     2094  Maize_Standard_Cahul_10May_Optimal_85_MOHC.PRM
 Tot(115)       10        5     2095     21.1    833.5   1931.8   890.00      0.0     21.1      0.0      0.0      0.0     63.7       11    151.1    151.1       71     0.000     0.000     0.000     0.000       85        0        0        0        0       35       20     7.438       30     -9.9    0.000   -9.900     0.00    0.000    0.000       30        8     2095  Maize_Standard_Cahul_10May_Optimal_85_MOHC.PRM
 Tot(116)       10        5     2096     97.8    785.9   1910.4   899.00      0.0     92.1      5.7     10.0      0.0    115.8       24    162.7    162.7       72     0.000     0.000     0.000     0.000       86        0        0        0        1       31       20     8.667       36     22.7    1.971   -9.900     0.71    0.000    0.000       30        8     2096  Maize_Standard_Cahul_10May_Optimal_85_MOHC.PRM
 Tot(117)       10        5     2097    141.3    744.3   1859.3   908.00      0.0    104.1     37.2     35.8      0.0    102.1       23    163.2    163.2       71     0.000     0.000     0.000     0.000       86        0        0        0        1       30       20     8.729       36      7.7    0.675   -9.900     0.26    0.000    0.000       30        8     2097  Maize_Standard_Cahul_10May_Optimal_85_MOHC.PRM
 Tot(118)       10        5     2098     45.2    776.4   1897.8   917.00      0.0     45.1      0.1      0.0      0.0     81.2       18    163.3    163.3       69     0.000     0.000     0.000     0.000       86        0        0        0        2       29       21     8.703       36      7.2    0.628   -9.900     0.26    0.000    0.000       30        8     2098  Maize_Standard_Cahul_10May_Optimal_85_MOHC.PRM
 Tot(119)       10        5     2099    114.9    678.5   1825.4   927.00      0.0    112.2      2.7      0.0      0.0     89.3       31    246.8    246.8       76     0.000     0.000     0.000     0.000      107        0        0        0        1       12       20    15.554       64     38.9    6.051   -9.900     1.80    0.000    0.000       30        8     2099  Maize_Standard_Cahul_10May_Optimal_85_MOHC.PRM
